# generated using pymatgen
data_Mn2Ni
_symmetry_space_group_name_H-M   'P 1'
_cell_length_a   5.78051200
_cell_length_b   6.21125452
_cell_length_c   5.88685000
_cell_angle_alpha   118.28682600
_cell_angle_beta   90.00000000
_cell_angle_gamma   117.73129909
_symmetry_Int_Tables_number   1
_chemical_formula_structural   Mn2Ni
_chemical_formula_sum   'Mn4 Ni2'
_cell_volume   158.01464683
_cell_formula_units_Z   2
loop_
 _symmetry_equiv_pos_site_id
 _symmetry_equiv_pos_as_xyz
  1  'x, y, z'
loop_
 _atom_site_type_symbol
 _atom_site_label
 _atom_site_symmetry_multiplicity
 _atom_site_fract_x
 _atom_site_fract_y
 _atom_site_fract_z
 _atom_site_occupancy
  Mn  Mn0  1  0.50000000  0.00000000  0.50000000  1.0
  Mn  Mn1  1  0.50000000  0.50000000  1.00000000  1.0
  Mn  Mn2  1  1.00000000  0.50000000  1.00000000  1.0
  Mn  Mn3  1  0.50000000  0.00000000  0.00000000  1.0
  Ni  Ni4  1  0.86960800  0.73921600  0.61960800  1.0
  Ni  Ni5  1  0.13039200  0.26078400  0.38039200  1.0
