# generated using pymatgen
data_Mn2Ni
_symmetry_space_group_name_H-M   'P 1'
_cell_length_a   6.02148478
_cell_length_b   6.02148478
_cell_length_c   6.02148478
_cell_angle_alpha   59.99999999
_cell_angle_beta   59.99999999
_cell_angle_gamma   59.99999999
_symmetry_Int_Tables_number   1
_chemical_formula_structural   Mn2Ni
_chemical_formula_sum   'Mn4 Ni2'
_cell_volume   154.38168659
_cell_formula_units_Z   2
loop_
 _symmetry_equiv_pos_site_id
 _symmetry_equiv_pos_as_xyz
  1  'x, y, z'
loop_
 _atom_site_type_symbol
 _atom_site_label
 _atom_site_symmetry_multiplicity
 _atom_site_fract_x
 _atom_site_fract_y
 _atom_site_fract_z
 _atom_site_occupancy
  Mn  Mn0  1  0.99999936  0.50000063  0.50000001  1.0
  Mn  Mn1  1  0.99999910  0.50000036  0.00000071  1.0
  Mn  Mn2  1  0.99999987  0.99999958  0.50000072  1.0
  Mn  Mn3  1  0.50000001  0.49999944  0.50000072  1.0
  Ni  Ni4  1  0.37499856  0.87500012  0.87500032  1.0
  Ni  Ni5  1  0.62499906  0.12499976  0.12500043  1.0
