# generated using pymatgen
data_NdMn
_symmetry_space_group_name_H-M   'P 1'
_cell_length_a   5.49970400
_cell_length_b   5.65781100
_cell_length_c   7.90017097
_cell_angle_alpha   90.57075008
_cell_angle_beta   90.00000000
_cell_angle_gamma   90.00000000
_symmetry_Int_Tables_number   1
_chemical_formula_structural   NdMn
_chemical_formula_sum   'Nd4 Mn4'
_cell_volume   245.81178112
_cell_formula_units_Z   4
loop_
 _symmetry_equiv_pos_site_id
 _symmetry_equiv_pos_as_xyz
  1  'x, y, z'
loop_
 _atom_site_type_symbol
 _atom_site_label
 _atom_site_symmetry_multiplicity
 _atom_site_fract_x
 _atom_site_fract_y
 _atom_site_fract_z
 _atom_site_occupancy
  Nd  Nd0  1  0.51564000  0.44737600  0.24849500  1.0
  Nd  Nd1  1  0.01564000  0.05262400  0.75150500  1.0
  Nd  Nd2  1  0.48436000  0.55262400  0.75150500  1.0
  Nd  Nd3  1  0.98436000  0.94737600  0.24849500  1.0
  Mn  Mn4  1  0.00000000  0.50000000  1.00000000  1.0
  Mn  Mn5  1  0.50000000  0.00000000  0.00000000  1.0
  Mn  Mn6  1  0.00000000  0.50000000  0.50000000  1.0
  Mn  Mn7  1  0.50000000  0.00000000  0.50000000  1.0
