# generated using pymatgen
data_Tm
_symmetry_space_group_name_H-M   'P 1'
_cell_length_a   3.40759200
_cell_length_b   5.86264161
_cell_length_c   11.39981000
_cell_angle_alpha   90.00000000
_cell_angle_beta   90.00000000
_cell_angle_gamma   106.89502807
_symmetry_Int_Tables_number   1
_chemical_formula_structural   Tm
_chemical_formula_sum   Tm4
_cell_volume   217.91008495
_cell_formula_units_Z   4
loop_
 _symmetry_equiv_pos_site_id
 _symmetry_equiv_pos_as_xyz
  1  'x, y, z'
loop_
 _atom_site_type_symbol
 _atom_site_label
 _atom_site_symmetry_multiplicity
 _atom_site_fract_x
 _atom_site_fract_y
 _atom_site_fract_z
 _atom_site_occupancy
  Tm  Tm0  1  0.36462700  0.72925400  0.57027300  1.0
  Tm  Tm1  1  0.36462700  0.72925400  0.92972700  1.0
  Tm  Tm2  1  0.63537300  0.27074600  0.42972700  1.0
  Tm  Tm3  1  0.63537300  0.27074600  0.07027300  1.0
