# generated using pymatgen
data_Tm
_symmetry_space_group_name_H-M   'P 1'
_cell_length_a   3.42672800
_cell_length_b   10.40445100
_cell_length_c   12.04401000
_cell_angle_alpha   90.00000000
_cell_angle_beta   90.00000000
_cell_angle_gamma   90.00000000
_symmetry_Int_Tables_number   1
_chemical_formula_structural   Tm
_chemical_formula_sum   Tm8
_cell_volume   429.40778117
_cell_formula_units_Z   8
loop_
 _symmetry_equiv_pos_site_id
 _symmetry_equiv_pos_as_xyz
  1  'x, y, z'
loop_
 _atom_site_type_symbol
 _atom_site_label
 _atom_site_symmetry_multiplicity
 _atom_site_fract_x
 _atom_site_fract_y
 _atom_site_fract_z
 _atom_site_occupancy
  Tm  Tm0  1  0.75000000  0.07609400  0.60876800  1.0
  Tm  Tm1  1  0.75000000  0.07413200  0.11036500  1.0
  Tm  Tm2  1  0.25000000  0.42586800  0.61036500  1.0
  Tm  Tm3  1  0.25000000  0.42390600  0.10876800  1.0
  Tm  Tm4  1  0.75000000  0.57609400  0.89123200  1.0
  Tm  Tm5  1  0.75000000  0.57413200  0.38963500  1.0
  Tm  Tm6  1  0.25000000  0.92586800  0.88963500  1.0
  Tm  Tm7  1  0.25000000  0.92390600  0.39123200  1.0
