# generated using pymatgen
data_Ni
_symmetry_space_group_name_H-M   'P 1'
_cell_length_a   5.49744109
_cell_length_b   5.49762978
_cell_length_c   5.82316329
_cell_angle_alpha   61.83269008
_cell_angle_beta   61.83405914
_cell_angle_gamma   60.00224880
_symmetry_Int_Tables_number   1
_chemical_formula_structural   Ni
_chemical_formula_sum   Ni2
_cell_volume   127.78579516
_cell_formula_units_Z   2
loop_
 _symmetry_equiv_pos_site_id
 _symmetry_equiv_pos_as_xyz
  1  'x, y, z'
loop_
 _atom_site_type_symbol
 _atom_site_label
 _atom_site_symmetry_multiplicity
 _atom_site_fract_x
 _atom_site_fract_y
 _atom_site_fract_z
 _atom_site_occupancy
  Ni  Ni0  1  0.50718800  0.50718900  0.47839100  1.0
  Ni  Ni1  1  0.00441200  0.00440800  0.98679500  1.0
