# generated using pymatgen
data_GdCo2
_symmetry_space_group_name_H-M   'P 1'
_cell_length_a   3.84485800
_cell_length_b   4.02327500
_cell_length_c   7.65935600
_cell_angle_alpha   90.00000000
_cell_angle_beta   90.00000000
_cell_angle_gamma   90.00000000
_symmetry_Int_Tables_number   1
_chemical_formula_structural   GdCo2
_chemical_formula_sum   'Gd1 Co2'
_cell_volume   118.48197341
_cell_formula_units_Z   1
loop_
 _symmetry_equiv_pos_site_id
 _symmetry_equiv_pos_as_xyz
  1  'x, y, z'
loop_
 _atom_site_type_symbol
 _atom_site_label
 _atom_site_symmetry_multiplicity
 _atom_site_fract_x
 _atom_site_fract_y
 _atom_site_fract_z
 _atom_site_occupancy
  Gd  Gd0  1  0.50000000  0.50000000  0.50000000  1.0
  Co  Co1  1  0.00000000  0.00000000  0.25638300  1.0
  Co  Co2  1  0.00000000  0.00000000  0.74361700  1.0
