# generated using pymatgen
data_Cu
_symmetry_space_group_name_H-M   'P 1'
_cell_length_a   5.29051700
_cell_length_b   5.99180542
_cell_length_c   9.35621600
_cell_angle_alpha   90.00000000
_cell_angle_beta   90.00000000
_cell_angle_gamma   95.97540324
_symmetry_Int_Tables_number   1
_chemical_formula_structural   Cu
_chemical_formula_sum   Cu4
_cell_volume   294.97822580
_cell_formula_units_Z   4
loop_
 _symmetry_equiv_pos_site_id
 _symmetry_equiv_pos_as_xyz
  1  'x, y, z'
loop_
 _atom_site_type_symbol
 _atom_site_label
 _atom_site_symmetry_multiplicity
 _atom_site_fract_x
 _atom_site_fract_y
 _atom_site_fract_z
 _atom_site_occupancy
  Cu  Cu0  1  0.26153900  0.63995100  0.48428200  1.0
  Cu  Cu1  1  0.76153900  0.13995100  0.01571800  1.0
  Cu  Cu2  1  0.73846100  0.36004900  0.51571800  1.0
  Cu  Cu3  1  0.23846100  0.86004900  0.98428200  1.0
