# generated using pymatgen
data_Cu
_symmetry_space_group_name_H-M   'P 1'
_cell_length_a   6.01691400
_cell_length_b   7.67781900
_cell_length_c   12.88292400
_cell_angle_alpha   90.00000000
_cell_angle_beta   90.00000000
_cell_angle_gamma   90.00000000
_symmetry_Int_Tables_number   1
_chemical_formula_structural   Cu
_chemical_formula_sum   Cu8
_cell_volume   595.14956238
_cell_formula_units_Z   8
loop_
 _symmetry_equiv_pos_site_id
 _symmetry_equiv_pos_as_xyz
  1  'x, y, z'
loop_
 _atom_site_type_symbol
 _atom_site_label
 _atom_site_symmetry_multiplicity
 _atom_site_fract_x
 _atom_site_fract_y
 _atom_site_fract_z
 _atom_site_occupancy
  Cu  Cu0  1  0.35001300  0.95537500  0.09526800  1.0
  Cu  Cu1  1  0.85001300  0.04462500  0.40473200  1.0
  Cu  Cu2  1  0.64998700  0.45537500  0.90473200  1.0
  Cu  Cu3  1  0.14998700  0.54462500  0.59526800  1.0
  Cu  Cu4  1  0.64998700  0.04462500  0.90473200  1.0
  Cu  Cu5  1  0.14998700  0.95537500  0.59526800  1.0
  Cu  Cu6  1  0.35001300  0.54462500  0.09526800  1.0
  Cu  Cu7  1  0.85001300  0.45537500  0.40473200  1.0
