# generated using pymatgen
data_AlF3
_symmetry_space_group_name_H-M   'P 1'
_cell_length_a   9.88195469
_cell_length_b   11.00033553
_cell_length_c   11.26892668
_cell_angle_alpha   91.94034645
_cell_angle_beta   86.83712180
_cell_angle_gamma   88.91121303
_symmetry_Int_Tables_number   1
_chemical_formula_structural   AlF3
_chemical_formula_sum   'Al25 F75'
_cell_volume   1222.15194439
_cell_formula_units_Z   25
loop_
 _symmetry_equiv_pos_site_id
 _symmetry_equiv_pos_as_xyz
  1  'x, y, z'
loop_
 _atom_site_type_symbol
 _atom_site_label
 _atom_site_symmetry_multiplicity
 _atom_site_fract_x
 _atom_site_fract_y
 _atom_site_fract_z
 _atom_site_occupancy
  Al  Al0  1  0.76352669  0.91809886  0.25442732  1
  Al  Al1  1  0.29359304  0.16942147  0.83883566  1
  Al  Al2  1  0.86805762  0.59690665  0.96294639  1
  Al  Al3  1  0.45110124  0.16913162  0.55057299  1
  Al  Al4  1  0.14655980  0.34223811  0.37594568  1
  Al  Al5  1  0.27754401  0.42108374  0.65179419  1
  Al  Al6  1  0.85886241  0.15235757  0.07756932  1
  Al  Al7  1  0.21119225  0.63674024  0.42519607  1
  Al  Al8  1  0.97676952  0.68803296  0.67063112  1
  Al  Al9  1  0.79857696  0.03967571  0.52919838  1
  Al  Al10  1  0.96678569  0.08795181  0.77773327  1
  Al  Al11  1  0.62155698  0.13090184  0.85009972  1
  Al  Al12  1  0.06741885  0.03331361  0.30103006  1
  Al  Al13  1  0.55838077  0.85441268  0.68976574  1
  Al  Al14  1  0.48552525  0.45351805  0.33318229  1
  Al  Al15  1  0.29327741  0.92550393  0.50052754  1
  Al  Al16  1  0.89608908  0.34211966  0.60013336  1
  Al  Al17  1  0.10268144  0.38085914  0.04695690  1
  Al  Al18  1  0.60343629  0.58142116  0.86683344  1
  Al  Al19  1  0.66544478  0.58077831  0.56290702  1
  Al  Al20  1  0.41243112  0.95285991  0.19806514  1
  Al  Al21  1  0.77848503  0.58956702  0.25578973  1
  Al  Al22  1  0.58569859  0.21092123  0.26433628  1
  Al  Al23  1  0.20998732  0.86747220  0.79414727  1
  Al  Al24  1  0.29638228  0.65423007  0.99945045  1
  F  F25  1  0.99278382  0.11781026  0.18000910  1
  F  F26  1  0.29191390  0.31523567  0.77203425  1
  F  F27  1  0.55921827  0.98561971  0.80735674  1
  F  F28  1  0.40772780  0.90026750  0.05790525  1
  F  F29  1  0.74306118  0.62075581  0.41761783  1
  F  F30  1  0.70146575  0.16315432  0.98358705  1
  F  F31  1  0.20984681  0.93602189  0.64656622  1
  F  F32  1  0.95248013  0.91412811  0.25623005  1
  F  F33  1  0.80808930  0.20847512  0.55402779  1
  F  F34  1  0.92911722  0.25572883  0.73114137  1
  F  F35  1  0.40290458  0.12844174  0.70065278  1
  F  F36  1  0.46954320  0.17834531  0.39026410  1
  F  F37  1  0.22657272  0.50692656  0.02289435  1
  F  F38  1  0.22471240  0.99670259  0.21013249  1
  F  F39  1  0.92626361  0.07848898  0.40743686  1
  F  F40  1  0.13509496  0.14760240  0.76648535  1
  F  F41  1  0.20904959  0.77339931  0.93249857  1
  F  F42  1  0.18394310  0.32696874  0.55347570  1
  F  F43  1  0.36678040  0.57958428  0.33597929  1
  F  F44  1  0.70679610  0.93384084  0.62771633  1
  F  F45  1  0.77157707  0.50083170  0.85983687  1
  F  F46  1  0.90779819  0.49541659  0.28327288  1
  F  F47  1  0.45850905  0.92672613  0.57158061  1
  F  F48  1  0.60520381  0.54527708  0.25203678  1
  F  F49  1  0.14885320  0.18296955  0.34287260  1
  F  F50  1  0.94678718  0.04580604  0.62330480  1
  F  F51  1  0.14132247  0.36080217  0.19702082  1
  F  F52  1  0.78041262  0.74982757  0.23370786  1
  F  F53  1  0.63198592  0.75467223  0.78692159  1
  F  F54  1  0.24685968  0.52538370  0.76511696  1
  F  F55  1  0.75052554  0.42889043  0.56771225  1
  F  F56  1  0.44959140  0.17373489  0.91514262  1
  F  F57  1  0.19911537  0.25877762  0.97071515  1
  F  F58  1  0.04225939  0.94139683  0.82108907  1
  F  F59  1  0.92839347  0.83136952  0.64697021  1
  F  F60  1  0.47962235  0.10321394  0.18158661  1
  F  F61  1  0.30228869  0.09230742  0.51303672  1
  F  F62  1  0.15249186  0.72513328  0.31824713  1
  F  F63  1  0.34731207  0.68478405  0.13380431  1
  F  F64  1  0.96571990  0.69330269  0.04266762  1
  F  F65  1  0.68895248  0.07988950  0.30571348  1
  F  F66  1  0.95649592  0.11543760  0.94195609  1
  F  F67  1  0.94774925  0.29774668  0.06638081  1
  F  F68  1  0.00386585  0.47147445  0.95554441  1
  F  F69  1  0.29633532  0.76392032  0.49640955  1
  F  F70  1  0.53317491  0.46295275  0.94132786  1
  F  F71  1  0.62508032  0.33939448  0.36371109  1
  F  F72  1  0.58000060  0.54263573  0.70979435  1
  F  F73  1  0.38901143  0.92558240  0.35349322  1
  F  F74  1  0.62896954  0.24470668  0.75415447  1
  F  F75  1  0.53250597  0.51302130  0.48016206  1
  F  F76  1  0.49098058  0.33860884  0.20256045  1
  F  F77  1  0.58834105  0.89170814  0.21844295  1
  F  F78  1  0.78912849  0.06507453  0.79867101  1
  F  F79  1  0.61333355  0.10539026  0.53906279  1
  F  F80  1  0.43478829  0.65643037  0.89916683  1
  F  F81  1  0.12899905  0.49941123  0.37905313  1
  F  F82  1  0.97849315  0.33210224  0.44988041  1
  F  F83  1  0.43050488  0.32737137  0.58513448  1
  F  F84  1  0.79545042  0.99838876  0.11229581  1
  F  F85  1  0.74022963  0.23849490  0.17645037  1
  F  F86  1  0.76164075  0.91541803  0.41697005  1
  F  F87  1  0.38591666  0.82381238  0.75461908  1
  F  F88  1  0.81175748  0.63492444  0.63100888  1
  F  F89  1  0.32926543  0.36178781  0.36782292  1
  F  F90  1  0.06117246  0.65615539  0.52973464  1
  F  F91  1  0.28368612  0.53852025  0.54662995  1
  F  F92  1  0.93607995  0.65827678  0.82222639  1
  F  F93  1  0.69790850  0.67609665  0.96926556  1
  F  F94  1  0.14281558  0.73454394  0.72480146  1
  F  F95  1  0.27400587  0.00874738  0.87155877  1
  F  F96  1  0.79543473  0.53443726  0.10127142  1
  F  F97  1  0.57683082  0.72743819  0.57702893  1
  F  F98  1  0.98929068  0.46407188  0.65306058  1
  F  F99  1  0.13947783  0.95348918  0.42300350  1
