# generated using pymatgen
data_Ti
_symmetry_space_group_name_H-M   'P 1'
_cell_length_a   5.34101617
_cell_length_b   5.34101617
_cell_length_c   5.92377510
_cell_angle_alpha   63.20421369
_cell_angle_beta   63.20421369
_cell_angle_gamma   59.99999786
_symmetry_Int_Tables_number   1
_chemical_formula_structural   Ti
_chemical_formula_sum   Ti2
_cell_volume   124.95341693
_cell_formula_units_Z   2
loop_
 _symmetry_equiv_pos_site_id
 _symmetry_equiv_pos_as_xyz
  1  'x, y, z'
loop_
 _atom_site_type_symbol
 _atom_site_label
 _atom_site_symmetry_multiplicity
 _atom_site_fract_x
 _atom_site_fract_y
 _atom_site_fract_z
 _atom_site_occupancy
  Ti  Ti0  1  0.85079300  0.85079300  0.44762100  1.0
  Ti  Ti1  1  0.14920700  0.14920700  0.55237900  1.0
