# generated using pymatgen
data_V
_symmetry_space_group_name_H-M   'P 1'
_cell_length_a   5.59090362
_cell_length_b   5.67741363
_cell_length_c   7.94167489
_cell_angle_alpha   89.99732557
_cell_angle_beta   89.94659132
_cell_angle_gamma   90.11474443
_symmetry_Int_Tables_number   1
_chemical_formula_structural   V
_chemical_formula_sum   V4
_cell_volume   252.08301580
_cell_formula_units_Z   4
loop_
 _symmetry_equiv_pos_site_id
 _symmetry_equiv_pos_as_xyz
  1  'x, y, z'
loop_
 _atom_site_type_symbol
 _atom_site_label
 _atom_site_symmetry_multiplicity
 _atom_site_fract_x
 _atom_site_fract_y
 _atom_site_fract_z
 _atom_site_occupancy
  V  V0  1  0.00003900  0.49999200  0.50003800  1.0
  V  V1  1  0.00005200  0.50000800  0.99997500  1.0
  V  V2  1  0.49995200  0.00004300  0.50002800  1.0
  V  V3  1  0.49998800  0.99998200  0.99995500  1.0
