# generated using pymatgen
data_Ta2Pb
_symmetry_space_group_name_H-M   'P 1'
_cell_length_a   5.74436500
_cell_length_b   7.73606400
_cell_length_c   11.19548200
_cell_angle_alpha   90.00000000
_cell_angle_beta   90.00000000
_cell_angle_gamma   90.00000000
_symmetry_Int_Tables_number   1
_chemical_formula_structural   Ta2Pb
_chemical_formula_sum   'Ta8 Pb4'
_cell_volume   497.51350874
_cell_formula_units_Z   4
loop_
 _symmetry_equiv_pos_site_id
 _symmetry_equiv_pos_as_xyz
  1  'x, y, z'
loop_
 _atom_site_type_symbol
 _atom_site_label
 _atom_site_symmetry_multiplicity
 _atom_site_fract_x
 _atom_site_fract_y
 _atom_site_fract_z
 _atom_site_occupancy
  Ta  Ta0  1  0.03837300  0.50314300  0.14251700  1.0
  Ta  Ta1  1  0.03837300  0.99685700  0.14251700  1.0
  Ta  Ta2  1  0.53837300  0.00314300  0.35748300  1.0
  Ta  Ta3  1  0.53837300  0.49685700  0.35748300  1.0
  Ta  Ta4  1  0.46162700  0.50314300  0.64251700  1.0
  Ta  Ta5  1  0.46162700  0.99685700  0.64251700  1.0
  Ta  Ta6  1  0.96162700  0.00314300  0.85748300  1.0
  Ta  Ta7  1  0.96162700  0.49685700  0.85748300  1.0
  Pb  Pb8  1  0.53998100  0.25000000  0.03812300  1.0
  Pb  Pb9  1  0.03998100  0.75000000  0.46187700  1.0
  Pb  Pb10  1  0.96001900  0.25000000  0.53812300  1.0
  Pb  Pb11  1  0.46001900  0.75000000  0.96187700  1.0
