# generated using pymatgen
data_Fe
_symmetry_space_group_name_H-M   'P 1'
_cell_length_a   8.37664959
_cell_length_b   8.41410026
_cell_length_c   16.76566353
_cell_angle_alpha   90.23343174
_cell_angle_beta   89.79304711
_cell_angle_gamma   89.93298601
_symmetry_Int_Tables_number   1
_chemical_formula_structural   Fe
_chemical_formula_sum   Fe40
_cell_volume   1181.65864119
_cell_formula_units_Z   40
loop_
 _symmetry_equiv_pos_site_id
 _symmetry_equiv_pos_as_xyz
  1  'x, y, z'
loop_
 _atom_site_type_symbol
 _atom_site_label
 _atom_site_symmetry_multiplicity
 _atom_site_fract_x
 _atom_site_fract_y
 _atom_site_fract_z
 _atom_site_occupancy
  Fe  Fe0  1  0.49320900  0.00678900  0.25421800  1.0
  Fe  Fe1  1  0.50126800  0.00423600  0.74960500  1.0
  Fe  Fe2  1  0.62865500  0.12607400  0.43924600  1.0
  Fe  Fe3  1  0.12847300  0.12676700  0.18993200  1.0
  Fe  Fe4  1  0.62610100  0.12968500  0.93626800  1.0
  Fe  Fe5  1  0.87417000  0.12709000  0.81166600  1.0
  Fe  Fe6  1  0.25785200  0.24612700  0.37370400  1.0
  Fe  Fe7  1  0.25532900  0.24852600  0.87327900  1.0
  Fe  Fe8  1  0.74994700  0.24903100  0.12531800  1.0
  Fe  Fe9  1  0.75302200  0.24712600  0.62445400  1.0
  Fe  Fe10  1  0.12815900  0.36803000  0.05899300  1.0
  Fe  Fe11  1  0.12209600  0.36474000  0.56130100  1.0
  Fe  Fe12  1  0.37559300  0.37423400  0.18818400  1.0
  Fe  Fe13  1  0.37307700  0.37242900  0.68857300  1.0
  Fe  Fe14  1  0.62932700  0.37699800  0.31818700  1.0
  Fe  Fe15  1  0.62702300  0.37698400  0.81260000  1.0
  Fe  Fe16  1  0.49344400  0.49468000  0.99854100  1.0
  Fe  Fe17  1  0.49565200  0.50449200  0.50149700  1.0
  Fe  Fe18  1  0.99698500  0.50279000  0.25232400  1.0
  Fe  Fe19  1  0.99350300  0.50041100  0.75089000  1.0
  Fe  Fe20  1  0.12640300  0.62198300  0.93536100  1.0
  Fe  Fe21  1  0.12293400  0.62093700  0.43557000  1.0
  Fe  Fe22  1  0.87272500  0.61916000  0.05934500  1.0
  Fe  Fe23  1  0.87263300  0.62612900  0.56339900  1.0
  Fe  Fe24  1  0.61772500  0.62357200  0.19112600  1.0
  Fe  Fe25  1  0.62603400  0.62675800  0.68803700  1.0
  Fe  Fe26  1  0.25435100  0.74461400  0.12424400  1.0
  Fe  Fe27  1  0.25425900  0.74794500  0.62505000  1.0
  Fe  Fe28  1  0.75679600  0.74679600  0.37652800  1.0
  Fe  Fe29  1  0.75471600  0.74634900  0.87200300  1.0
  Fe  Fe30  1  0.37419300  0.87476700  0.93626300  1.0
  Fe  Fe31  1  0.37773400  0.87496500  0.43803900  1.0
  Fe  Fe32  1  0.62204200  0.88264800  0.06236100  1.0
  Fe  Fe33  1  0.62518000  0.87316600  0.56343200  1.0
  Fe  Fe34  1  0.12641900  0.87519800  0.31317900  1.0
  Fe  Fe35  1  0.12777000  0.87626300  0.80797100  1.0
  Fe  Fe36  1  0.87506700  0.87923600  0.19258000  1.0
  Fe  Fe37  1  0.87412300  0.87676700  0.68630500  1.0
  Fe  Fe38  1  0.99283000  0.00379200  0.49936400  1.0
  Fe  Fe39  1  0.99460900  0.00300600  0.99775600  1.0
