# generated using pymatgen
data_Fe
_symmetry_space_group_name_H-M   'P 1'
_cell_length_a   8.48998100
_cell_length_b   8.48998100
_cell_length_c   8.48998100
_cell_angle_alpha   90.00000000
_cell_angle_beta   90.00000000
_cell_angle_gamma   90.00000000
_symmetry_Int_Tables_number   1
_chemical_formula_structural   Fe
_chemical_formula_sum   Fe20
_cell_volume   611.95594044
_cell_formula_units_Z   20
loop_
 _symmetry_equiv_pos_site_id
 _symmetry_equiv_pos_as_xyz
  1  'x, y, z'
loop_
 _atom_site_type_symbol
 _atom_site_label
 _atom_site_symmetry_multiplicity
 _atom_site_fract_x
 _atom_site_fract_y
 _atom_site_fract_z
 _atom_site_occupancy
  Fe  Fe0  1  0.87500000  0.86438000  0.61438000  1.0
  Fe  Fe1  1  0.75525900  0.24474100  0.74474100  1.0
  Fe  Fe2  1  0.12500000  0.36438000  0.88562000  1.0
  Fe  Fe3  1  0.38562000  0.37500000  0.63562000  1.0
  Fe  Fe4  1  0.24474100  0.74474100  0.75525900  1.0
  Fe  Fe5  1  0.62500000  0.13562000  0.11438000  1.0
  Fe  Fe6  1  0.36438000  0.88562000  0.12500000  1.0
  Fe  Fe7  1  0.49474100  0.50525900  0.00525900  1.0
  Fe  Fe8  1  0.88562000  0.12500000  0.36438000  1.0
  Fe  Fe9  1  0.86438000  0.61438000  0.87500000  1.0
  Fe  Fe10  1  0.11438000  0.62500000  0.13562000  1.0
  Fe  Fe11  1  0.25525900  0.25525900  0.25525900  1.0
  Fe  Fe12  1  0.99474100  0.99474100  0.99474100  1.0
  Fe  Fe13  1  0.74474100  0.75525900  0.24474100  1.0
  Fe  Fe14  1  0.50525900  0.00525900  0.49474100  1.0
  Fe  Fe15  1  0.37500000  0.63562000  0.38562000  1.0
  Fe  Fe16  1  0.61438000  0.87500000  0.86438000  1.0
  Fe  Fe17  1  0.00525900  0.49474100  0.50525900  1.0
  Fe  Fe18  1  0.13562000  0.11438000  0.62500000  1.0
  Fe  Fe19  1  0.63562000  0.38562000  0.37500000  1.0
