# generated using pymatgen
data_Fe
_symmetry_space_group_name_H-M   'P 1'
_cell_length_a   5.82895407
_cell_length_b   5.82895407
_cell_length_c   5.82895349
_cell_angle_alpha   60.11303998
_cell_angle_beta   60.11303998
_cell_angle_gamma   60.11303343
_symmetry_Int_Tables_number   1
_chemical_formula_structural   Fe
_chemical_formula_sum   Fe5
_cell_volume   140.40018256
_cell_formula_units_Z   5
loop_
 _symmetry_equiv_pos_site_id
 _symmetry_equiv_pos_as_xyz
  1  'x, y, z'
loop_
 _atom_site_type_symbol
 _atom_site_label
 _atom_site_symmetry_multiplicity
 _atom_site_fract_x
 _atom_site_fract_y
 _atom_site_fract_z
 _atom_site_occupancy
  Fe  Fe0  1  0.37985900  0.37985900  0.37985900  1.0
  Fe  Fe1  1  0.62014100  0.62014100  0.62014100  1.0
  Fe  Fe2  1  0.00000000  0.50000000  1.00000000  1.0
  Fe  Fe3  1  0.00000000  0.00000000  0.50000000  1.0
  Fe  Fe4  1  0.50000000  1.00000000  0.00000000  1.0
