# generated using pymatgen
data_Pr
_symmetry_space_group_name_H-M   'P 1'
_cell_length_a   3.74340941
_cell_length_b   3.74340941
_cell_length_c   9.30888381
_cell_angle_alpha   78.40066884
_cell_angle_beta   78.40066884
_cell_angle_gamma   60.00001042
_symmetry_Int_Tables_number   1
_chemical_formula_structural   Pr
_chemical_formula_sum   Pr3
_cell_volume   109.88303004
_cell_formula_units_Z   3
loop_
 _symmetry_equiv_pos_site_id
 _symmetry_equiv_pos_as_xyz
  1  'x, y, z'
loop_
 _atom_site_type_symbol
 _atom_site_label
 _atom_site_symmetry_multiplicity
 _atom_site_fract_x
 _atom_site_fract_y
 _atom_site_fract_z
 _atom_site_occupancy
  Pr  Pr0  1  0.00000000  0.00000000  0.00000000  1.0
  Pr  Pr1  1  0.22271900  0.22271900  0.33184300  1.0
  Pr  Pr2  1  0.77728100  0.77728100  0.66815700  1.0
