# generated using pymatgen
data_FeMo
_symmetry_space_group_name_H-M   'P 1'
_cell_length_a   5.66523148
_cell_length_b   5.67179088
_cell_length_c   40.08600475
_cell_angle_alpha   90.01920448
_cell_angle_beta   90.05207015
_cell_angle_gamma   89.88737315
_symmetry_Int_Tables_number   1
_chemical_formula_structural   FeMo
_chemical_formula_sum   'Fe10 Mo10'
_cell_volume   1288.04074287
_cell_formula_units_Z   10
loop_
 _symmetry_equiv_pos_site_id
 _symmetry_equiv_pos_as_xyz
  1  'x, y, z'
loop_
 _atom_site_type_symbol
 _atom_site_label
 _atom_site_symmetry_multiplicity
 _atom_site_fract_x
 _atom_site_fract_y
 _atom_site_fract_z
 _atom_site_occupancy
  Fe  Fe0  1  0.50046941  0.49911188  0.09884005  1.0
  Fe  Fe1  1  0.99960758  0.00056775  0.20044182  1.0
  Fe  Fe2  1  0.49977806  0.50015827  0.30007897  1.0
  Fe  Fe3  1  0.00002463  0.99994659  0.39999392  1.0
  Fe  Fe4  1  0.49999627  0.49997956  0.49989202  1.0
  Fe  Fe5  1  0.99999766  0.00000262  0.59964508  1.0
  Fe  Fe6  1  0.50005533  0.49999353  0.69960105  1.0
  Fe  Fe7  1  0.00075078  0.99982673  0.80078920  1.0
  Fe  Fe8  1  0.00117907  0.99940834  0.89876088  1.0
  Fe  Fe9  1  0.49990587  0.49900771  0.00122669  1.0
  Mo  Mo10  1  0.99997696  0.99937411  0.10117998  1.0
  Mo  Mo11  1  0.49928428  0.50082378  0.20032078  1.0
  Mo  Mo12  1  0.99985973  0.00004791  0.30018199  1.0
  Mo  Mo13  1  0.50001919  0.49993461  0.40002234  1.0
  Mo  Mo14  1  0.00001700  0.99998105  0.49990559  1.0
  Mo  Mo15  1  0.49998576  0.50000951  0.59956182  1.0
  Mo  Mo16  1  0.00003029  0.00003607  0.69952344  1.0
  Mo  Mo17  1  0.50075989  0.50003941  0.90121560  1.0
  Mo  Mo18  1  0.50069157  0.49962776  0.79916652  1.0
  Mo  Mo19  1  0.99973119  0.99948961  0.99912144  1.0
