# generated using pymatgen
data_FeMo
_symmetry_space_group_name_H-M   'P 1'
_cell_length_a   5.79720976
_cell_length_b   5.80056409
_cell_length_c   10.03382888
_cell_angle_alpha   73.26147796
_cell_angle_beta   73.20928755
_cell_angle_gamma   60.02144330
_symmetry_Int_Tables_number   1
_chemical_formula_structural   FeMo
_chemical_formula_sum   'Fe2 Mo2'
_cell_volume   275.57648792
_cell_formula_units_Z   2
loop_
 _symmetry_equiv_pos_site_id
 _symmetry_equiv_pos_as_xyz
  1  'x, y, z'
loop_
 _atom_site_type_symbol
 _atom_site_label
 _atom_site_symmetry_multiplicity
 _atom_site_fract_x
 _atom_site_fract_y
 _atom_site_fract_z
 _atom_site_occupancy
  Fe  Fe0  1  0.51122100  0.49973900  0.50010300  1.0
  Fe  Fe1  1  0.99184600  0.99977600  0.99992200  1.0
  Mo  Mo2  1  0.74941000  0.75130300  0.74900300  1.0
  Mo  Mo3  1  0.24977100  0.24876300  0.25098100  1.0
