# generated using pymatgen
data_FeMo
_symmetry_space_group_name_H-M   'P 1'
_cell_length_a   5.79294150
_cell_length_b   5.79353691
_cell_length_c   5.79407618
_cell_angle_alpha   119.93291643
_cell_angle_beta   119.92552922
_cell_angle_gamma   90.11621089
_symmetry_Int_Tables_number   1
_chemical_formula_structural   FeMo
_chemical_formula_sum   'Fe1 Mo1'
_cell_volume   137.65747186
_cell_formula_units_Z   1
loop_
 _symmetry_equiv_pos_site_id
 _symmetry_equiv_pos_as_xyz
  1  'x, y, z'
loop_
 _atom_site_type_symbol
 _atom_site_label
 _atom_site_symmetry_multiplicity
 _atom_site_fract_x
 _atom_site_fract_y
 _atom_site_fract_z
 _atom_site_occupancy
  Fe  Fe0  1  0.99995850  0.00001550  0.99998300  1.0
  Mo  Mo1  1  0.50001900  0.50000800  0.00002400  1.0
