# generated using pymatgen
data_FeMo
_symmetry_space_group_name_H-M   'P 1'
_cell_length_a   5.78234494
_cell_length_b   5.78458097
_cell_length_c   5.79369365
_cell_angle_alpha   119.88797826
_cell_angle_beta   119.92080118
_cell_angle_gamma   90.01074620
_symmetry_Int_Tables_number   1
_chemical_formula_structural   FeMo
_chemical_formula_sum   'Fe1 Mo1'
_cell_volume   137.41259361
_cell_formula_units_Z   1
loop_
 _symmetry_equiv_pos_site_id
 _symmetry_equiv_pos_as_xyz
  1  'x, y, z'
loop_
 _atom_site_type_symbol
 _atom_site_label
 _atom_site_symmetry_multiplicity
 _atom_site_fract_x
 _atom_site_fract_y
 _atom_site_fract_z
 _atom_site_occupancy
  Fe  Fe0  1  0.99894950  0.00018900  0.00034100  1.0
  Mo  Mo1  1  0.50034650  0.50003000  0.00003800  1.0
