# generated using pymatgen
data_CoW
_symmetry_space_group_name_H-M   'P 1'
_cell_length_a   5.75624699
_cell_length_b   5.75646056
_cell_length_c   5.86129804
_cell_angle_alpha   60.60175310
_cell_angle_beta   60.60234143
_cell_angle_gamma   90.01555935
_symmetry_Int_Tables_number   1
_chemical_formula_structural   CoW
_chemical_formula_sum   'Co1 W1'
_cell_volume   139.77699291
_cell_formula_units_Z   1
loop_
 _symmetry_equiv_pos_site_id
 _symmetry_equiv_pos_as_xyz
  1  'x, y, z'
loop_
 _atom_site_type_symbol
 _atom_site_label
 _atom_site_symmetry_multiplicity
 _atom_site_fract_x
 _atom_site_fract_y
 _atom_site_fract_z
 _atom_site_occupancy
  Co  Co0  1  0.00000000  0.00000000  0.00000000  1.0
  W  W1  1  0.50000000  0.50000000  1.00000000  1.0
