# generated using pymatgen
data_V
_symmetry_space_group_name_H-M   'P 1'
_cell_length_a   5.84258400
_cell_length_b   5.91421480
_cell_length_c   13.28001600
_cell_angle_alpha   90.00000000
_cell_angle_beta   90.00000000
_cell_angle_gamma   119.60015266
_symmetry_Int_Tables_number   1
_chemical_formula_structural   V
_chemical_formula_sum   V12
_cell_volume   398.99463243
_cell_formula_units_Z   12
loop_
 _symmetry_equiv_pos_site_id
 _symmetry_equiv_pos_as_xyz
  1  'x, y, z'
loop_
 _atom_site_type_symbol
 _atom_site_label
 _atom_site_symmetry_multiplicity
 _atom_site_fract_x
 _atom_site_fract_y
 _atom_site_fract_z
 _atom_site_occupancy
  V  V0  1  0.50107900  0.50036100  0.99990600  1.0
  V  V1  1  0.33076300  0.66152600  0.24747600  1.0
  V  V2  1  0.99928200  0.50036100  0.99990600  1.0
  V  V3  1  0.00186600  0.00373200  0.14620000  1.0
  V  V4  1  0.99932200  0.99864400  0.85445700  1.0
  V  V5  1  0.00067800  0.00135600  0.35445700  1.0
  V  V6  1  0.50114400  0.00228800  0.99992100  1.0
  V  V7  1  0.66923700  0.33847400  0.74747600  1.0
  V  V8  1  0.49892100  0.49963900  0.49990600  1.0
  V  V9  1  0.49885600  0.99771200  0.49992100  1.0
  V  V10  1  0.99813400  0.99626800  0.64620000  1.0
  V  V11  1  0.00071800  0.49963900  0.49990600  1.0
