# generated using pymatgen
data_Ir
_symmetry_space_group_name_H-M   'P 1'
_cell_length_a   4.87907500
_cell_length_b   4.93321300
_cell_length_c   4.91748228
_cell_angle_alpha   90.00000000
_cell_angle_beta   72.06176629
_cell_angle_gamma   90.00000000
_symmetry_Int_Tables_number   1
_chemical_formula_structural   Ir
_chemical_formula_sum   Ir4
_cell_volume   112.60776338
_cell_formula_units_Z   4
loop_
 _symmetry_equiv_pos_site_id
 _symmetry_equiv_pos_as_xyz
  1  'x, y, z'
loop_
 _atom_site_type_symbol
 _atom_site_label
 _atom_site_symmetry_multiplicity
 _atom_site_fract_x
 _atom_site_fract_y
 _atom_site_fract_z
 _atom_site_occupancy
  Ir  Ir0  1  0.76684400  0.50027600  0.72076500  1.0
  Ir  Ir1  1  0.23315600  0.00027600  0.77923500  1.0
  Ir  Ir2  1  0.23315600  0.49972400  0.27923500  1.0
  Ir  Ir3  1  0.76684400  0.99972400  0.22076500  1.0
