# generated using pymatgen
data_Cu
_symmetry_space_group_name_H-M   'P 1'
_cell_length_a   3.66287600
_cell_length_b   4.04627000
_cell_length_c   20.43527899
_cell_angle_alpha   95.68170836
_cell_angle_beta   95.14182601
_cell_angle_gamma   89.99999998
_symmetry_Int_Tables_number   1
_chemical_formula_structural   Cu
_chemical_formula_sum   Cu10
_cell_volume   300.15820990
_cell_formula_units_Z   10
loop_
 _symmetry_equiv_pos_site_id
 _symmetry_equiv_pos_as_xyz
  1  'x, y, z'
loop_
 _atom_site_type_symbol
 _atom_site_label
 _atom_site_symmetry_multiplicity
 _atom_site_fract_x
 _atom_site_fract_y
 _atom_site_fract_z
 _atom_site_occupancy
  Cu  Cu0  1  0.77307000  0.02307000  0.54614000  1.0
  Cu  Cu1  1  0.87516800  0.12516800  0.75033600  1.0
  Cu  Cu2  1  0.82511500  0.57511500  0.65023000  1.0
  Cu  Cu3  1  0.07448500  0.32448500  0.14897000  1.0
  Cu  Cu4  1  0.97490600  0.22490600  0.94981200  1.0
  Cu  Cu5  1  0.22693000  0.97693000  0.45386000  1.0
  Cu  Cu6  1  0.12483200  0.87483200  0.24966400  1.0
  Cu  Cu7  1  0.17488500  0.42488500  0.34977000  1.0
  Cu  Cu8  1  0.92551500  0.67551500  0.85103000  1.0
  Cu  Cu9  1  0.02509400  0.77509400  0.05018800  1.0
