# generated using pymatgen
data_Cu
_symmetry_space_group_name_H-M   'P 1'
_cell_length_a   6.08409300
_cell_length_b   6.08409300
_cell_length_c   13.10415800
_cell_angle_alpha   90.00000000
_cell_angle_beta   90.00000000
_cell_angle_gamma   90.00000000
_symmetry_Int_Tables_number   1
_chemical_formula_structural   Cu
_chemical_formula_sum   Cu16
_cell_volume   485.06597130
_cell_formula_units_Z   16
loop_
 _symmetry_equiv_pos_site_id
 _symmetry_equiv_pos_as_xyz
  1  'x, y, z'
loop_
 _atom_site_type_symbol
 _atom_site_label
 _atom_site_symmetry_multiplicity
 _atom_site_fract_x
 _atom_site_fract_y
 _atom_site_fract_z
 _atom_site_occupancy
  Cu  Cu0  1  0.25204400  0.50000000  0.10873500  1.0
  Cu  Cu1  1  0.25192000  0.50000000  0.74495500  1.0
  Cu  Cu2  1  0.50000000  0.25204400  0.89126500  1.0
  Cu  Cu3  1  0.50000000  0.25192000  0.25504500  1.0
  Cu  Cu4  1  0.50000000  0.74808000  0.25504500  1.0
  Cu  Cu5  1  0.50000000  0.74795600  0.89126500  1.0
  Cu  Cu6  1  0.74808000  0.50000000  0.74495500  1.0
  Cu  Cu7  1  0.74795600  0.50000000  0.10873500  1.0
  Cu  Cu8  1  0.75204400  0.00000000  0.39126500  1.0
  Cu  Cu9  1  0.75192000  0.00000000  0.75504500  1.0
  Cu  Cu10  1  0.00000000  0.75192000  0.24495500  1.0
  Cu  Cu11  1  0.00000000  0.24808000  0.24495500  1.0
  Cu  Cu12  1  0.00000000  0.75204400  0.60873500  1.0
  Cu  Cu13  1  0.00000000  0.24795600  0.60873500  1.0
  Cu  Cu14  1  0.24808000  0.00000000  0.75504500  1.0
  Cu  Cu15  1  0.24795600  0.00000000  0.39126500  1.0
