# generated using pymatgen
data_Co2Ni
_symmetry_space_group_name_H-M   'P 1'
_cell_length_a   5.71787138
_cell_length_b   5.71787138
_cell_length_c   5.80771957
_cell_angle_alpha   60.51045011
_cell_angle_beta   60.51045011
_cell_angle_gamma   60.00000720
_symmetry_Int_Tables_number   1
_chemical_formula_structural   Co2Ni
_chemical_formula_sum   'Co4 Ni2'
_cell_volume   135.29055158
_cell_formula_units_Z   2
loop_
 _symmetry_equiv_pos_site_id
 _symmetry_equiv_pos_as_xyz
  1  'x, y, z'
loop_
 _atom_site_type_symbol
 _atom_site_label
 _atom_site_symmetry_multiplicity
 _atom_site_fract_x
 _atom_site_fract_y
 _atom_site_fract_z
 _atom_site_occupancy
  Co  Co0  1  0.00000000  0.00000000  0.00000000  1.0
  Co  Co1  1  0.50000000  0.00000000  0.50000000  1.0
  Co  Co2  1  0.00000000  0.50000000  0.50000000  1.0
  Co  Co3  1  0.00000000  0.00000000  0.50000000  1.0
  Ni  Ni4  1  0.62515200  0.62515200  0.12454400  1.0
  Ni  Ni5  1  0.37484800  0.37484800  0.87545600  1.0
