# generated using pymatgen
data_Co2Ni
_symmetry_space_group_name_H-M   'P 1'
_cell_length_a   5.71360396
_cell_length_b   5.71920812
_cell_length_c   5.79752493
_cell_angle_alpha   89.95458546
_cell_angle_beta   60.58193953
_cell_angle_gamma   60.06633692
_symmetry_Int_Tables_number   1
_chemical_formula_structural   Co2Ni
_chemical_formula_sum   'Co4 Ni2'
_cell_volume   135.31024800
_cell_formula_units_Z   2
loop_
 _symmetry_equiv_pos_site_id
 _symmetry_equiv_pos_as_xyz
  1  'x, y, z'
loop_
 _atom_site_type_symbol
 _atom_site_label
 _atom_site_symmetry_multiplicity
 _atom_site_fract_x
 _atom_site_fract_y
 _atom_site_fract_z
 _atom_site_occupancy
  Co  Co0  1  0.25000000  0.37500000  0.12500000  1.0
  Co  Co1  1  0.75000000  0.87500000  0.62500000  1.0
  Co  Co2  1  0.25000000  0.37500000  0.62500000  1.0
  Co  Co3  1  0.75000000  0.37500000  0.62500000  1.0
  Ni  Ni4  1  0.50212500  0.74984800  0.24526900  1.0
  Ni  Ni5  1  0.99787500  0.00015200  0.00473100  1.0
