# generated using pymatgen
data_Co2Ni
_symmetry_space_group_name_H-M   'P 1'
_cell_length_a   5.83071297
_cell_length_b   5.87982617
_cell_length_c   5.88408328
_cell_angle_alpha   60.30554031
_cell_angle_beta   60.94981066
_cell_angle_gamma   60.37345733
_symmetry_Int_Tables_number   1
_chemical_formula_structural   Co2Ni
_chemical_formula_sum   'Co4 Ni2'
_cell_volume   144.38172585
_cell_formula_units_Z   2
loop_
 _symmetry_equiv_pos_site_id
 _symmetry_equiv_pos_as_xyz
  1  'x, y, z'
loop_
 _atom_site_type_symbol
 _atom_site_label
 _atom_site_symmetry_multiplicity
 _atom_site_fract_x
 _atom_site_fract_y
 _atom_site_fract_z
 _atom_site_occupancy
  Co  Co0  1  0.37500900  0.37500400  0.37501200  1.0
  Co  Co1  1  0.87499900  0.37500500  0.37499500  1.0
  Co  Co2  1  0.37500700  0.37498800  0.87502500  1.0
  Co  Co3  1  0.37500700  0.87500400  0.37499600  1.0
  Ni  Ni4  1  0.75424700  0.76207000  0.73590400  1.0
  Ni  Ni5  1  0.99565700  0.98794800  0.01399900  1.0
