# generated using pymatgen
data_TiO
_symmetry_space_group_name_H-M   'P 1'
_cell_length_a   10.38745635
_cell_length_b   10.60244838
_cell_length_c   11.08431529
_cell_angle_alpha   92.35656106
_cell_angle_beta   89.76971765
_cell_angle_gamma   90.03553916
_symmetry_Int_Tables_number   1
_chemical_formula_structural   TiO
_chemical_formula_sum   'Ti50 O50'
_cell_volume   1219.70064738
_cell_formula_units_Z   50
loop_
 _symmetry_equiv_pos_site_id
 _symmetry_equiv_pos_as_xyz
  1  'x, y, z'
loop_
 _atom_site_type_symbol
 _atom_site_label
 _atom_site_symmetry_multiplicity
 _atom_site_fract_x
 _atom_site_fract_y
 _atom_site_fract_z
 _atom_site_occupancy
  Ti  Ti0  1  0.61391788  0.31552483  0.17808539  1
  Ti  Ti1  1  0.46570354  0.95483043  0.36001670  1
  Ti  Ti2  1  0.70375909  0.10272399  0.30687851  1
  Ti  Ti3  1  0.05258819  0.90196012  0.06860769  1
  Ti  Ti4  1  0.31227015  0.86832751  0.13893810  1
  Ti  Ti5  1  0.43137571  0.37548652  0.01446126  1
  Ti  Ti6  1  0.82649800  0.62512279  0.09694909  1
  Ti  Ti7  1  0.06699093  0.17417154  0.17672571  1
  Ti  Ti8  1  0.10459477  0.92970507  0.32675260  1
  Ti  Ti9  1  0.27737843  0.17024244  0.75057166  1
  Ti  Ti10  1  0.96322966  0.94858898  0.79323928  1
  Ti  Ti11  1  0.37950299  0.87980932  0.86775157  1
  Ti  Ti12  1  0.18756196  0.92769496  0.65869718  1
  Ti  Ti13  1  0.93816302  0.86749912  0.54068600  1
  Ti  Ti14  1  0.27375643  0.38211180  0.23277245  1
  Ti  Ti15  1  0.09555339  0.33770485  0.65917047  1
  Ti  Ti16  1  0.61820151  0.75185677  0.41908408  1
  Ti  Ti17  1  0.74065373  0.84569887  0.96454482  1
  Ti  Ti18  1  0.15813258  0.63649879  0.65203163  1
  Ti  Ti19  1  0.27214525  0.49657201  0.83758769  1
  Ti  Ti20  1  0.75774485  0.52109425  0.31649622  1
  Ti  Ti21  1  0.54140889  0.71461332  0.19102632  1
  Ti  Ti22  1  0.75542399  0.10743308  0.81518331  1
  Ti  Ti23  1  0.03092060  0.46512290  0.35828278  1
  Ti  Ti24  1  0.12568011  0.72985239  0.87101182  1
  Ti  Ti25  1  0.62617520  0.38400813  0.81089535  1
  Ti  Ti26  1  0.91478938  0.44303395  0.82124277  1
  Ti  Ti27  1  0.29596070  0.16551724  0.04022018  1
  Ti  Ti28  1  0.65527077  0.85769893  0.71705839  1
  Ti  Ti29  1  0.44894845  0.26213876  0.51102169  1
  Ti  Ti30  1  0.56146831  0.04646293  0.10199268  1
  Ti  Ti31  1  0.50623980  0.48732830  0.36783533  1
  Ti  Ti32  1  0.57690838  0.65159325  0.86374903  1
  Ti  Ti33  1  0.86922774  0.70767712  0.77758348  1
  Ti  Ti34  1  0.09966313  0.41284790  0.03026597  1
  Ti  Ti35  1  0.19663933  0.14988435  0.49433838  1
  Ti  Ti36  1  0.87192609  0.54698203  0.55578926  1
  Ti  Ti37  1  0.80364700  0.34982796  0.00340355  1
  Ti  Ti38  1  0.33507824  0.70345408  0.36606417  1
  Ti  Ti39  1  0.16631207  0.64225985  0.14795438  1
  Ti  Ti40  1  0.69951985  0.32499164  0.48379723  1
  Ti  Ti41  1  0.85926446  0.84780809  0.22188051  1
  Ti  Ti42  1  0.40440498  0.75210162  0.63198749  1
  Ti  Ti43  1  0.82858801  0.10398774  0.07602183  1
  Ti  Ti44  1  0.43910457  0.01449392  0.62650213  1
  Ti  Ti45  1  0.72723134  0.04276519  0.53788197  1
  Ti  Ti46  1  0.05400845  0.19114139  0.90290731  1
  Ti  Ti47  1  0.52714333  0.51916717  0.60996623  1
  Ti  Ti48  1  0.25049425  0.46135864  0.50039505  1
  Ti  Ti49  1  0.92180431  0.19904615  0.41576924  1
  O  O50  1  0.47082076  0.64831954  0.48128316  1
  O  O51  1  0.09767001  0.31994529  0.47196641  1
  O  O52  1  0.65862022  0.93602270  0.39010711  1
  O  O53  1  0.68289082  0.52523804  0.49132627  1
  O  O54  1  0.08203013  0.10992151  0.34538438  1
  O  O55  1  0.07414271  0.36834360  0.20380623  1
  O  O56  1  0.50139212  0.89376211  0.18730136  1
  O  O57  1  0.99080806  0.71985312  0.13890964  1
  O  O58  1  0.25593692  0.20130418  0.20734443  1
  O  O59  1  0.12622596  0.07239890  0.02806126  1
  O  O60  1  0.73724549  0.70092268  0.26235966  1
  O  O61  1  0.67955086  0.04643179  0.96364656  1
  O  O62  1  0.87658113  0.17091094  0.23988717  1
  O  O63  1  0.45926906  0.50052232  0.88490347  1
  O  O64  1  0.86126814  0.38611224  0.40757313  1
  O  O65  1  0.39129135  0.99886026  0.01727860  1
  O  O66  1  0.82950000  0.72467813  0.60578136  1
  O  O67  1  0.82397829  0.19930481  0.56357668  1
  O  O68  1  0.56247469  0.84484928  0.88208946  1
  O  O69  1  0.73158763  0.96992813  0.16756409  1
  O  O70  1  0.65166038  0.68618589  0.03195880  1
  O  O71  1  0.60058120  0.15874419  0.46237278  1
  O  O72  1  0.01742603  0.60027999  0.77434655  1
  O  O73  1  0.93271700  0.49647400  0.00320784  1
  O  O74  1  0.60793531  0.04791549  0.70425027  1
  O  O75  1  0.05569486  0.56542064  0.51109816  1
  O  O76  1  0.91127570  0.06624239  0.92159601  1
  O  O77  1  0.19794644  0.56019303  0.31430924  1
  O  O78  1  0.47927721  0.20910061  0.09807598  1
  O  O79  1  0.36251744  0.25576763  0.88759496  1
  O  O80  1  0.83650770  0.97787019  0.66775450  1
  O  O81  1  0.18043611  0.58687717  0.97432394  1
  O  O82  1  0.22731408  0.83925811  0.98151233  1
  O  O83  1  0.74971502  0.44994875  0.15603432  1
  O  O84  1  0.94897784  0.81472576  0.91863701  1
  O  O85  1  0.56764517  0.34185991  0.64416259  1
  O  O86  1  0.34134108  0.55574959  0.65959128  1
  O  O87  1  0.28648347  0.29544199  0.61167616  1
  O  O88  1  0.28786715  0.88716874  0.32129265  1
  O  O89  1  0.12678209  0.05132607  0.78213366  1
  O  O90  1  0.35316111  0.68712953  0.16805756  1
  O  O91  1  0.25662309  0.78275394  0.74932648  1
  O  O92  1  0.11287866  0.37280320  0.84322163  1
  O  O93  1  0.45341478  0.43282699  0.19571587  1
  O  O94  1  0.95883027  0.82365341  0.37154159  1
  O  O95  1  0.57545834  0.69057199  0.69041929  1
  O  O96  1  0.09921692  0.98070344  0.51835849  1
  O  O97  1  0.62084722  0.34825803  0.98132641  1
  O  O98  1  0.37281751  0.08333328  0.46682103  1
  O  O99  1  0.92232869  0.40583847  0.64937728  1
