# generated using pymatgen
data_TiO
_symmetry_space_group_name_H-M   'P 1'
_cell_length_a   10.66753474
_cell_length_b   10.24863701
_cell_length_c   10.89470718
_cell_angle_alpha   90.37474319
_cell_angle_beta   91.40824996
_cell_angle_gamma   88.99343920
_symmetry_Int_Tables_number   1
_chemical_formula_structural   TiO
_chemical_formula_sum   'Ti50 O50'
_cell_volume   1190.52745158
_cell_formula_units_Z   50
loop_
 _symmetry_equiv_pos_site_id
 _symmetry_equiv_pos_as_xyz
  1  'x, y, z'
loop_
 _atom_site_type_symbol
 _atom_site_label
 _atom_site_symmetry_multiplicity
 _atom_site_fract_x
 _atom_site_fract_y
 _atom_site_fract_z
 _atom_site_occupancy
  Ti  Ti0  1  0.33917632  0.35761289  0.17148418  1
  Ti  Ti1  1  0.58209153  0.87819447  0.36742876  1
  Ti  Ti2  1  0.52803926  0.04349795  0.17623081  1
  Ti  Ti3  1  0.83254520  0.98146682  0.80825714  1
  Ti  Ti4  1  0.36736293  0.14762434  0.99109946  1
  Ti  Ti5  1  0.57726907  0.99897308  0.91781988  1
  Ti  Ti6  1  0.72509257  0.77447032  0.96527267  1
  Ti  Ti7  1  0.18524516  0.27140033  0.39307489  1
  Ti  Ti8  1  0.11306391  0.80309788  0.34669742  1
  Ti  Ti9  1  0.25523580  0.03510828  0.24819466  1
  Ti  Ti10  1  0.10858404  0.10240699  0.85837584  1
  Ti  Ti11  1  0.53984503  0.64528594  0.12368661  1
  Ti  Ti12  1  0.36370928  0.72790922  0.28657972  1
  Ti  Ti13  1  0.01122574  0.05684586  0.32456585  1
  Ti  Ti14  1  0.34929972  0.48571638  0.39621724  1
  Ti  Ti15  1  0.03243778  0.48930736  0.77358863  1
  Ti  Ti16  1  0.53964139  0.65882401  0.49721058  1
  Ti  Ti17  1  0.51969596  0.70581556  0.85056715  1
  Ti  Ti18  1  0.25398456  0.65164819  0.86277257  1
  Ti  Ti19  1  0.15401453  0.36379348  0.95694085  1
  Ti  Ti20  1  0.22151163  0.29841033  0.68211205  1
  Ti  Ti21  1  0.77774503  0.53915141  0.03482186  1
  Ti  Ti22  1  0.74239460  0.61931342  0.68926242  1
  Ti  Ti23  1  0.99412015  0.76721613  0.83115072  1
  Ti  Ti24  1  0.07472537  0.88082232  0.08389847  1
  Ti  Ti25  1  0.04685583  0.59603739  0.04194473  1
  Ti  Ti26  1  0.58665704  0.90568111  0.65743392  1
  Ti  Ti27  1  0.05284268  0.24795950  0.14765700  1
  Ti  Ti28  1  0.85856049  0.94040328  0.54952927  1
  Ti  Ti29  1  0.36460363  0.86698088  0.02731010  1
  Ti  Ti30  1  0.33627448  0.93773888  0.76922494  1
  Ti  Ti31  1  0.68138692  0.27922671  0.14536202  1
  Ti  Ti32  1  0.68452929  0.49996468  0.34631911  1
  Ti  Ti33  1  0.98374357  0.24581580  0.62706035  1
  Ti  Ti34  1  0.37891356  0.38075909  0.86211739  1
  Ti  Ti35  1  0.36955587  0.93636769  0.48117627  1
  Ti  Ti36  1  0.91693240  0.54127226  0.52278684  1
  Ti  Ti37  1  0.44783362  0.23081216  0.42140498  1
  Ti  Ti38  1  0.12210980  0.91860759  0.60815852  1
  Ti  Ti39  1  0.07963385  0.50992606  0.29547943  1
  Ti  Ti40  1  0.48927210  0.41869816  0.61943885  1
  Ti  Ti41  1  0.80959793  0.04343766  0.14122364  1
  Ti  Ti42  1  0.26311664  0.70882471  0.55157337  1
  Ti  Ti43  1  0.88679985  0.28661031  0.90905388  1
  Ti  Ti44  1  0.73301508  0.11171697  0.37231766  1
  Ti  Ti45  1  0.89628156  0.69324456  0.23126453  1
  Ti  Ti46  1  0.74282477  0.25930290  0.66466987  1
  Ti  Ti47  1  0.62296813  0.40682702  0.84661469  1
  Ti  Ti48  1  0.50701700  0.17077018  0.73168632  1
  Ti  Ti49  1  0.90740572  0.31573724  0.36238137  1
  O  O50  1  0.21581785  0.63287692  0.37107577  1
  O  O51  1  0.30231623  0.11194241  0.41087341  1
  O  O52  1  0.38747823  0.57119777  0.56422799  1
  O  O53  1  0.13212774  0.43758927  0.13026379  1
  O  O54  1  0.16814169  0.09113526  0.67953326  1
  O  O55  1  0.56152695  0.24696919  0.56587977  1
  O  O56  1  0.66605027  0.06933011  0.75283747  1
  O  O57  1  0.01957697  0.92894313  0.45999099  1
  O  O58  1  0.07597395  0.41829162  0.61058351  1
  O  O59  1  0.76123154  0.96620371  0.97251195  1
  O  O60  1  0.14220727  0.74504812  0.97413329  1
  O  O61  1  0.24938102  0.99456334  0.93682690  1
  O  O62  1  0.88383638  0.52102825  0.32820205  1
  O  O63  1  0.51040032  0.24052008  0.89876499  1
  O  O64  1  0.71616489  0.30534133  0.33047624  1
  O  O65  1  0.03141211  0.19589556  0.45307625  1
  O  O66  1  0.55047540  0.86032373  0.04795844  1
  O  O67  1  0.82819822  0.12191204  0.54779103  1
  O  O68  1  0.58706447  0.71893395  0.66919181  1
  O  O69  1  0.55222568  0.09276471  0.36200810  1
  O  O70  1  0.96397133  0.90123496  0.69673405  1
  O  O71  1  0.69392416  0.91838295  0.49998547  1
  O  O72  1  0.92871080  0.63406954  0.69947879  1
  O  O73  1  0.95250588  0.87721826  0.22376806  1
  O  O74  1  0.31449356  0.33299488  0.52569351  1
  O  O75  1  0.40219535  0.67073830  0.98773625  1
  O  O76  1  0.87657337  0.20364117  0.07580583  1
  O  O77  1  0.95550742  0.45668959  0.93996921  1
  O  O78  1  0.21870896  0.46844646  0.79507581  1
  O  O79  1  0.43121874  0.02483745  0.63092301  1
  O  O80  1  0.56484865  0.69224388  0.31230184  1
  O  O81  1  0.90158582  0.70124475  0.96945075  1
  O  O82  1  0.22741129  0.84083772  0.18408821  1
  O  O83  1  0.85390456  0.36420390  0.53328213  1
  O  O84  1  0.70662319  0.59504403  0.86583840  1
  O  O85  1  0.67018730  0.44357580  0.67241682  1
  O  O86  1  0.72546786  0.35424392  0.98466756  1
  O  O87  1  0.00090865  0.95319280  0.92223585  1
  O  O88  1  0.25488313  0.23093074  0.85715074  1
  O  O89  1  0.19903839  0.77288993  0.72043887  1
  O  O90  1  0.38967688  0.53821151  0.21900595  1
  O  O91  1  0.73373807  0.61392097  0.49828856  1
  O  O92  1  0.64958346  0.48142706  0.17067380  1
  O  O93  1  0.91660994  0.15507562  0.77913039  1
  O  O94  1  0.69716832  0.95618917  0.24701167  1
  O  O95  1  0.46734906  0.52221410  0.78781730  1
  O  O96  1  0.73596314  0.69953392  0.13631706  1
  O  O97  1  0.49147337  0.23906303  0.14410923  1
  O  O98  1  0.41801011  0.91890093  0.29011852  1
  O  O99  1  0.08941269  0.06165340  0.14931686  1
