# generated using pymatgen
data_TiO
_symmetry_space_group_name_H-M   'P 1'
_cell_length_a   10.42649126
_cell_length_b   10.75088038
_cell_length_c   10.67691311
_cell_angle_alpha   91.88886872
_cell_angle_beta   89.34707861
_cell_angle_gamma   89.42376559
_symmetry_Int_Tables_number   1
_chemical_formula_structural   TiO
_chemical_formula_sum   'Ti50 O50'
_cell_volume   1196.02433061
_cell_formula_units_Z   50
loop_
 _symmetry_equiv_pos_site_id
 _symmetry_equiv_pos_as_xyz
  1  'x, y, z'
loop_
 _atom_site_type_symbol
 _atom_site_label
 _atom_site_symmetry_multiplicity
 _atom_site_fract_x
 _atom_site_fract_y
 _atom_site_fract_z
 _atom_site_occupancy
  Ti  Ti0  1  0.25160394  0.48708683  0.00927997  1
  Ti  Ti1  1  0.57797394  0.69374000  0.13381270  1
  Ti  Ti2  1  0.67032009  0.07026432  0.26503877  1
  Ti  Ti3  1  0.64389886  0.11038249  0.58865633  1
  Ti  Ti4  1  0.43871770  0.18071063  0.13604811  1
  Ti  Ti5  1  0.62123024  0.10867482  0.91161832  1
  Ti  Ti6  1  0.56939897  0.81013542  0.91724937  1
  Ti  Ti7  1  0.16889467  0.24662221  0.12077132  1
  Ti  Ti8  1  0.01052956  0.64596385  0.42841432  1
  Ti  Ti9  1  0.08521061  0.88078828  0.11494703  1
  Ti  Ti10  1  0.14683322  0.27160280  0.83577905  1
  Ti  Ti11  1  0.77302319  0.55885392  0.36439739  1
  Ti  Ti12  1  0.30013619  0.74444753  0.32072414  1
  Ti  Ti13  1  0.11727170  0.12799718  0.55141907  1
  Ti  Ti14  1  0.36112488  0.26434889  0.43887918  1
  Ti  Ti15  1  0.92981369  0.45982005  0.64314145  1
  Ti  Ti16  1  0.42643450  0.56540885  0.48756496  1
  Ti  Ti17  1  0.56783647  0.87151958  0.67411219  1
  Ti  Ti18  1  0.32824631  0.72612462  0.03290908  1
  Ti  Ti19  1  0.96936928  0.44600103  0.92052264  1
  Ti  Ti20  1  0.38624135  0.30013080  0.90199446  1
  Ti  Ti21  1  0.79652524  0.56589550  0.07498790  1
  Ti  Ti22  1  0.57524457  0.80021307  0.39884073  1
  Ti  Ti23  1  0.85661336  0.80084464  0.63441184  1
  Ti  Ti24  1  0.80212408  0.64430478  0.83892745  1
  Ti  Ti25  1  0.04948559  0.60587166  0.13290875  1
  Ti  Ti26  1  0.37518674  0.12894169  0.73365548  1
  Ti  Ti27  1  0.93629535  0.35222106  0.15869676  1
  Ti  Ti28  1  0.07984997  0.88487631  0.41389128  1
  Ti  Ti29  1  0.46832310  0.91413378  0.15480223  1
  Ti  Ti30  1  0.08680726  0.94581164  0.74284826  1
  Ti  Ti31  1  0.64051411  0.34733027  0.29916633  1
  Ti  Ti32  1  0.88251934  0.24747261  0.43220137  1
  Ti  Ti33  1  0.86441110  0.13052423  0.70120628  1
  Ti  Ti34  1  0.43454361  0.60143880  0.78042192  1
  Ti  Ti35  1  0.26261569  0.02983765  0.26542286  1
  Ti  Ti36  1  0.66954729  0.63089500  0.60825715  1
  Ti  Ti37  1  0.43988835  0.00291072  0.46735708  1
  Ti  Ti38  1  0.28525430  0.79258952  0.59437349  1
  Ti  Ti39  1  0.21302653  0.43991461  0.62369859  1
  Ti  Ti40  1  0.64466504  0.37989262  0.57008880  1
  Ti  Ti41  1  0.88119949  0.96579370  0.91876444  1
  Ti  Ti42  1  0.08307858  0.66019073  0.84819350  1
  Ti  Ti43  1  0.73518105  0.37424542  0.85410994  1
  Ti  Ti44  1  0.95128301  0.07480671  0.23932760  1
  Ti  Ti45  1  0.83761825  0.82135863  0.23375573  1
  Ti  Ti46  1  0.82831958  0.97224937  0.45847846  1
  Ti  Ti47  1  0.53761791  0.46314515  0.03454563  1
  Ti  Ti48  1  0.26494707  0.03264562  0.98137837  1
  Ti  Ti49  1  0.32336837  0.43290164  0.23095476  1
  O  O50  1  0.49544710  0.35158820  0.18029660  1
  O  O51  1  0.45873826  0.17446226  0.56599752  1
  O  O52  1  0.15133607  0.77260931  0.72798673  1
  O  O53  1  0.13853352  0.43542106  0.16545633  1
  O  O54  1  0.08853732  0.96654735  0.92650942  1
  O  O55  1  0.50425858  0.39400945  0.42463847  1
  O  O56  1  0.54714046  0.04552116  0.74935909  1
  O  O57  1  0.29656457  0.56787466  0.35652032  1
  O  O58  1  0.32031977  0.32324919  0.73728394  1
  O  O59  1  0.80970556  0.13430510  0.88017438  1
  O  O60  1  0.91480816  0.80309778  0.81952649  1
  O  O61  1  0.13058143  0.06627440  0.13261254  1
  O  O62  1  0.08752573  0.73593501  0.28282934  1
  O  O63  1  0.27171163  0.61467151  0.87947381  1
  O  O64  1  0.69083240  0.23688456  0.44019783  1
  O  O65  1  0.17670422  0.11788531  0.73222004  1
  O  O66  1  0.58504345  0.06341871  0.09843928  1
  O  O67  1  0.96369481  0.25657383  0.60345795  1
  O  O68  1  0.27301313  0.08984462  0.43590853  1
  O  O69  1  0.98905065  0.06652478  0.42607594  1
  O  O70  1  0.07151568  0.51217708  0.53083818  1
  O  O71  1  0.63173777  0.99392032  0.42956744  1
  O  O72  1  0.09192655  0.45112862  0.77328958  1
  O  O73  1  0.16452033  0.93897381  0.57025667  1
  O  O74  1  0.58218473  0.29829598  0.94382648  1
  O  O75  1  0.50371208  0.64447557  0.95473564  1
  O  O76  1  0.79805982  0.17886665  0.19951788  1
  O  O77  1  0.04098264  0.28975012  0.99152357  1
  O  O78  1  0.30483734  0.60440484  0.62645498  1
  O  O79  1  0.42299290  0.12169032  0.94127274  1
  O  O80  1  0.60566776  0.62571995  0.43295791  1
  O  O81  1  0.72771291  0.71650527  0.00235761  1
  O  O82  1  0.28020778  0.85705804  0.17436087  1
  O  O83  1  0.20013873  0.29229957  0.52075929  1
  O  O84  1  0.69601983  0.93593707  0.90901873  1
  O  O85  1  0.75322510  0.49823917  0.71542980  1
  O  O86  1  0.81298261  0.38248072  0.02332587  1
  O  O87  1  0.75519903  0.96396518  0.64238698  1
  O  O88  1  0.39935793  0.89047212  0.97226438  1
  O  O89  1  0.11467518  0.73163410  0.01806986  1
  O  O90  1  0.39368614  0.56978612  0.12599447  1
  O  O91  1  0.85438511  0.62904372  0.53461893  1
  O  O92  1  0.02463665  0.24253473  0.28120102  1
  O  O93  1  0.69959325  0.26144223  0.69790170  1
  O  O94  1  0.64905414  0.85849814  0.22397762  1
  O  O95  1  0.52567421  0.50758555  0.64775086  1
  O  O96  1  0.82987758  0.38984527  0.31266992  1
  O  O97  1  0.65520036  0.51998032  0.19891291  1
  O  O98  1  0.29865193  0.24542469  0.26365435  1
  O  O99  1  0.89970082  0.94361832  0.10287237  1
