# generated using pymatgen
data_Ru
_symmetry_space_group_name_H-M   'P 1'
_cell_length_a   5.58681400
_cell_length_b   5.61581104
_cell_length_c   5.61581104
_cell_angle_alpha   61.13466638
_cell_angle_beta   60.17065955
_cell_angle_gamma   60.17065955
_symmetry_Int_Tables_number   1
_chemical_formula_structural   Ru
_chemical_formula_sum   Ru2
_cell_volume   125.94920678
_cell_formula_units_Z   2
loop_
 _symmetry_equiv_pos_site_id
 _symmetry_equiv_pos_as_xyz
  1  'x, y, z'
loop_
 _atom_site_type_symbol
 _atom_site_label
 _atom_site_symmetry_multiplicity
 _atom_site_fract_x
 _atom_site_fract_y
 _atom_site_fract_z
 _atom_site_occupancy
  Ru  Ru0  1  0.00000000  0.50000000  0.50000000  1.0
  Ru  Ru1  1  0.50000000  0.00000000  0.00000000  1.0
