# generated using pymatgen
data_MnV
_symmetry_space_group_name_H-M   'P 1'
_cell_length_a   5.09478604
_cell_length_b   5.55659958
_cell_length_c   5.55658193
_cell_angle_alpha   107.51192386
_cell_angle_beta   97.24219818
_cell_angle_gamma   97.24220263
_symmetry_Int_Tables_number   1
_chemical_formula_structural   MnV
_chemical_formula_sum   'Mn2 V2'
_cell_volume   146.56482334
_cell_formula_units_Z   2
loop_
 _symmetry_equiv_pos_site_id
 _symmetry_equiv_pos_as_xyz
  1  'x, y, z'
loop_
 _atom_site_type_symbol
 _atom_site_label
 _atom_site_symmetry_multiplicity
 _atom_site_fract_x
 _atom_site_fract_y
 _atom_site_fract_z
 _atom_site_occupancy
  Mn  Mn0  1  0.49999800  0.68618900  0.31381300  1.0
  Mn  Mn1  1  0.49999900  0.31119200  0.68880500  1.0
  V  V2  1  0.10301100  0.75362100  0.75907200  1.0
  V  V3  1  0.89698900  0.24093000  0.24638300  1.0
