# generated using pymatgen
data_TiO
_symmetry_space_group_name_H-M   'P 1'
_cell_length_a   10.67232099
_cell_length_b   10.32712270
_cell_length_c   10.85689076
_cell_angle_alpha   87.65174887
_cell_angle_beta   81.74976010
_cell_angle_gamma   85.79985010
_symmetry_Int_Tables_number   1
_chemical_formula_structural   TiO
_chemical_formula_sum   'Ti50 O50'
_cell_volume   1180.45853341
_cell_formula_units_Z   50
loop_
 _symmetry_equiv_pos_site_id
 _symmetry_equiv_pos_as_xyz
  1  'x, y, z'
loop_
 _atom_site_type_symbol
 _atom_site_label
 _atom_site_symmetry_multiplicity
 _atom_site_fract_x
 _atom_site_fract_y
 _atom_site_fract_z
 _atom_site_occupancy
  Ti  Ti0  1  0.32995399  0.27407964  0.16613759  1
  Ti  Ti1  1  0.35361696  0.77671324  0.46158428  1
  Ti  Ti2  1  0.60269269  0.89042423  0.33594606  1
  Ti  Ti3  1  0.93974256  0.97912803  0.85366313  1
  Ti  Ti4  1  0.35082122  0.01078622  0.31183961  1
  Ti  Ti5  1  0.51964323  0.30710836  0.92678017  1
  Ti  Ti6  1  0.36318300  0.75984036  0.18436664  1
  Ti  Ti7  1  0.10176253  0.06318225  0.39890100  1
  Ti  Ti8  1  0.04107431  0.85362665  0.05572491  1
  Ti  Ti9  1  0.16828615  0.06321443  0.13420490  1
  Ti  Ti10  1  0.06795468  0.29697879  0.68369577  1
  Ti  Ti11  1  0.32135863  0.81095665  0.93536775  1
  Ti  Ti12  1  0.12459654  0.82348613  0.31327522  1
  Ti  Ti13  1  0.55580371  0.80714847  0.61283284  1
  Ti  Ti14  1  0.41556978  0.43558230  0.46030808  1
  Ti  Ti15  1  0.07577836  0.47333738  0.86597575  1
  Ti  Ti16  1  0.86742149  0.72518670  0.22841543  1
  Ti  Ti17  1  0.60400008  0.83958709  0.86490300  1
  Ti  Ti18  1  0.34778857  0.66481430  0.70787091  1
  Ti  Ti19  1  0.26143775  0.20466263  0.92517322  1
  Ti  Ti20  1  0.15359981  0.32001984  0.42488250  1
  Ti  Ti21  1  0.48358321  0.47171511  0.18620210  1
  Ti  Ti22  1  0.84621990  0.49474744  0.74164244  1
  Ti  Ti23  1  0.09527059  0.55195295  0.59198836  1
  Ti  Ti24  1  0.10594917  0.77008992  0.79574275  1
  Ti  Ti25  1  0.85480409  0.71471619  0.97094859  1
  Ti  Ti26  1  0.85364182  0.76766580  0.72747872  1
  Ti  Ti27  1  0.02740811  0.47927818  0.12173546  1
  Ti  Ti28  1  0.68721950  0.01952598  0.56523863  1
  Ti  Ti29  1  0.48639726  0.08799645  0.47280782  1
  Ti  Ti30  1  0.45936244  0.01756248  0.04178072  1
  Ti  Ti31  1  0.61944965  0.15851620  0.22024544  1
  Ti  Ti32  1  0.59699065  0.64850646  0.04749944  1
  Ti  Ti33  1  0.92433718  0.03814257  0.58362380  1
  Ti  Ti34  1  0.27902065  0.52801528  0.02568747  1
  Ti  Ti35  1  0.17001233  0.00865078  0.65437159  1
  Ti  Ti36  1  0.92459311  0.50544606  0.41640509  1
  Ti  Ti37  1  0.73196665  0.47632461  0.24215862  1
  Ti  Ti38  1  0.85454748  0.77725610  0.47471260  1
  Ti  Ti39  1  0.18647082  0.54008949  0.28211655  1
  Ti  Ti40  1  0.60458176  0.31587927  0.62469677  1
  Ti  Ti41  1  0.77113121  0.97067082  0.06671825  1
  Ti  Ti42  1  0.62294149  0.57007472  0.49529946  1
  Ti  Ti43  1  0.93354787  0.21815885  0.03328407  1
  Ti  Ti44  1  0.38931301  0.01499149  0.78697907  1
  Ti  Ti45  1  0.85884901  0.98645254  0.31256503  1
  Ti  Ti46  1  0.82068881  0.22787820  0.78495269  1
  Ti  Ti47  1  0.58168630  0.53297394  0.80342381  1
  Ti  Ti48  1  0.30796970  0.23968012  0.66173298  1
  Ti  Ti49  1  0.91053768  0.24983372  0.29562057  1
  O  O50  1  0.27537033  0.67959796  0.34246621  1
  O  O51  1  0.97836024  0.20417726  0.45684935  1
  O  O52  1  0.54962950  0.51118109  0.34440955  1
  O  O53  1  0.63128998  0.34167653  0.18930053  1
  O  O54  1  0.17995044  0.18125171  0.55273437  1
  O  O55  1  0.46638728  0.27114987  0.52989726  1
  O  O56  1  0.21904462  0.16929063  0.28819569  1
  O  O57  1  0.98001452  0.91759131  0.43335899  1
  O  O58  1  0.31860306  0.39806718  0.32185413  1
  O  O59  1  0.81304750  0.12274438  0.94254692  1
  O  O60  1  0.48415325  0.81202930  0.03182511  1
  O  O61  1  0.77938922  0.88511129  0.87920924  1
  O  O62  1  0.04916138  0.39601673  0.29679354  1
  O  O63  1  0.42303421  0.57505867  0.56182481  1
  O  O64  1  0.79103544  0.38418951  0.39344202  1
  O  O65  1  0.28501777  0.00615195  0.96788687  1
  O  O66  1  0.91593734  0.61982834  0.58640910  1
  O  O67  1  0.74996707  0.17741873  0.63832384  1
  O  O68  1  0.57711867  0.95628011  0.72041961  1
  O  O69  1  0.59787784  0.97772395  0.15440567  1
  O  O70  1  0.00500200  0.89055800  0.68325882  1
  O  O71  1  0.35955901  0.04565547  0.61111032  1
  O  O72  1  0.19343499  0.32654208  0.80316924  1
  O  O73  1  0.23787918  0.63740939  0.87929099  1
  O  O74  1  0.47831285  0.37454843  0.75404983  1
  O  O75  1  0.77442279  0.63701035  0.38498965  1
  O  O76  1  0.99617158  0.12532936  0.72902928  1
  O  O77  1  0.99663163  0.66449133  0.07878208  1
  O  O78  1  0.33679375  0.34902457  0.98862432  1
  O  O79  1  0.45927984  0.14163178  0.88511054  1
  O  O80  1  0.54418123  0.74750482  0.44334445  1
  O  O81  1  0.97288256  0.63035177  0.81528976  1
  O  O82  1  0.02886971  0.04324901  0.01488399  1
  O  O83  1  0.22423149  0.40755329  0.56983985  1
  O  O84  1  0.72357117  0.64674322  0.85780429  1
  O  O85  1  0.68935218  0.35949790  0.84997990  1
  O  O86  1  0.66998340  0.07214620  0.38288399  1
  O  O87  1  0.26729349  0.86409919  0.76249982  1
  O  O88  1  0.20105289  0.81408282  0.12171324  1
  O  O89  1  0.19801715  0.69263808  0.61671083  1
  O  O90  1  0.51215160  0.49975531  0.99294005  1
  O  O91  1  0.69650297  0.48041983  0.63719557  1
  O  O92  1  0.94068515  0.34949929  0.85627412  1
  O  O93  1  0.50089523  0.19679953  0.09544159  1
  O  O94  1  0.82083016  0.12690986  0.18419274  1
  O  O95  1  0.48493173  0.72200570  0.79619434  1
  O  O96  1  0.01647398  0.66752101  0.33801863  1
  O  O97  1  0.75109971  0.63123564  0.12422259  1
  O  O98  1  0.22762635  0.92312736  0.44673905  1
  O  O99  1  0.87813604  0.36843550  0.13897571  1
