# generated using pymatgen
data_MnTl
_symmetry_space_group_name_H-M   'P 1'
_cell_length_a   5.23466670
_cell_length_b   5.23466670
_cell_length_c   6.46307597
_cell_angle_alpha   66.11092762
_cell_angle_beta   66.11092762
_cell_angle_gamma   59.99999112
_symmetry_Int_Tables_number   1
_chemical_formula_structural   MnTl
_chemical_formula_sum   'Mn2 Tl2'
_cell_volume   135.57096350
_cell_formula_units_Z   2
loop_
 _symmetry_equiv_pos_site_id
 _symmetry_equiv_pos_as_xyz
  1  'x, y, z'
loop_
 _atom_site_type_symbol
 _atom_site_label
 _atom_site_symmetry_multiplicity
 _atom_site_fract_x
 _atom_site_fract_y
 _atom_site_fract_z
 _atom_site_occupancy
  Mn  Mn0  1  0.66470300  0.66470300  0.00589100  1.0
  Mn  Mn1  1  0.33529700  0.33529700  0.99410900  1.0
  Tl  Tl2  1  0.87480700  0.87480700  0.37557900  1.0
  Tl  Tl3  1  0.12519300  0.12519300  0.62442100  1.0
