# generated using pymatgen
data_MnTl
_symmetry_space_group_name_H-M   'P 1'
_cell_length_a   6.13181400
_cell_length_b   6.13181426
_cell_length_c   12.01344400
_cell_angle_alpha   90.00000000
_cell_angle_beta   90.00000000
_cell_angle_gamma   119.99999858
_symmetry_Int_Tables_number   1
_chemical_formula_structural   MnTl
_chemical_formula_sum   'Mn6 Tl6'
_cell_volume   391.17953821
_cell_formula_units_Z   6
loop_
 _symmetry_equiv_pos_site_id
 _symmetry_equiv_pos_as_xyz
  1  'x, y, z'
loop_
 _atom_site_type_symbol
 _atom_site_label
 _atom_site_symmetry_multiplicity
 _atom_site_fract_x
 _atom_site_fract_y
 _atom_site_fract_z
 _atom_site_occupancy
  Mn  Mn0  1  0.00000000  0.66511200  0.50643800  1.0
  Mn  Mn1  1  1.00000000  0.33488800  0.00643800  1.0
  Mn  Mn2  1  0.66511200  1.00000000  0.50643800  1.0
  Mn  Mn3  1  0.66511200  0.66511200  0.00643800  1.0
  Mn  Mn4  1  0.33488800  0.00000000  0.00643800  1.0
  Mn  Mn5  1  0.33488800  0.33488800  0.50643800  1.0
  Tl  Tl6  1  0.66666667  0.33333333  0.76680000  1.0
  Tl  Tl7  1  0.00000000  0.00000000  0.73607300  1.0
  Tl  Tl8  1  0.00000000  0.00000000  0.23607300  1.0
  Tl  Tl9  1  0.66666667  0.33333333  0.26680000  1.0
  Tl  Tl10  1  0.33333333  0.66666667  0.26680000  1.0
  Tl  Tl11  1  0.33333333  0.66666667  0.76680000  1.0
