# generated using pymatgen
data_MnTl
_symmetry_space_group_name_H-M   'P 1'
_cell_length_a   5.48905504
_cell_length_b   5.56705147
_cell_length_c   7.93363627
_cell_angle_alpha   89.28677625
_cell_angle_beta   90.01328592
_cell_angle_gamma   89.99774487
_symmetry_Int_Tables_number   1
_chemical_formula_structural   MnTl
_chemical_formula_sum   'Mn4 Tl4'
_cell_volume   242.41609263
_cell_formula_units_Z   4
loop_
 _symmetry_equiv_pos_site_id
 _symmetry_equiv_pos_as_xyz
  1  'x, y, z'
loop_
 _atom_site_type_symbol
 _atom_site_label
 _atom_site_symmetry_multiplicity
 _atom_site_fract_x
 _atom_site_fract_y
 _atom_site_fract_z
 _atom_site_occupancy
  Mn  Mn0  1  0.49956800  0.99998200  0.50012800  1.0
  Mn  Mn1  1  0.50021500  0.99984700  0.99989300  1.0
  Mn  Mn2  1  0.99964700  0.50005300  0.49998900  1.0
  Mn  Mn3  1  0.00034000  0.50011300  0.99980800  1.0
  Tl  Tl4  1  0.99867200  0.03096000  0.25333300  1.0
  Tl  Tl5  1  0.49859000  0.46905200  0.74675600  1.0
  Tl  Tl6  1  0.50143900  0.53096700  0.25329300  1.0
  Tl  Tl7  1  0.00133300  0.96905500  0.74667700  1.0
