# generated using pymatgen
data_Gd
_symmetry_space_group_name_H-M   'P 1'
_cell_length_a   3.87542000
_cell_length_b   4.05516892
_cell_length_c   10.12869446
_cell_angle_alpha   94.26554496
_cell_angle_beta   90.00000000
_cell_angle_gamma   118.54423211
_symmetry_Int_Tables_number   1
_chemical_formula_structural   Gd
_chemical_formula_sum   Gd2
_cell_volume   139.32694776
_cell_formula_units_Z   2
loop_
 _symmetry_equiv_pos_site_id
 _symmetry_equiv_pos_as_xyz
  1  'x, y, z'
loop_
 _atom_site_type_symbol
 _atom_site_label
 _atom_site_symmetry_multiplicity
 _atom_site_fract_x
 _atom_site_fract_y
 _atom_site_fract_z
 _atom_site_occupancy
  Gd  Gd0  1  0.14473100  0.28946200  0.14527700  1.0
  Gd  Gd1  1  0.85526900  0.71053800  0.85472300  1.0
