# generated using pymatgen
data_Fe
_symmetry_space_group_name_H-M   'P 1'
_cell_length_a   6.06536200
_cell_length_b   6.06536150
_cell_length_c   14.84971800
_cell_angle_alpha   90.00000000
_cell_angle_beta   90.00000000
_cell_angle_gamma   120.00000272
_symmetry_Int_Tables_number   1
_chemical_formula_structural   Fe
_chemical_formula_sum   Fe12
_cell_volume   473.11012484
_cell_formula_units_Z   12
loop_
 _symmetry_equiv_pos_site_id
 _symmetry_equiv_pos_as_xyz
  1  'x, y, z'
loop_
 _atom_site_type_symbol
 _atom_site_label
 _atom_site_symmetry_multiplicity
 _atom_site_fract_x
 _atom_site_fract_y
 _atom_site_fract_z
 _atom_site_occupancy
  Fe  Fe0  1  0.83535200  0.67070400  0.16643400  1.0
  Fe  Fe1  1  0.99964800  0.49982400  0.49932800  1.0
  Fe  Fe2  1  0.66666667  0.33333333  0.33221900  1.0
  Fe  Fe3  1  0.83535200  0.16464800  0.16643400  1.0
  Fe  Fe4  1  0.50017600  0.00035200  0.49932800  1.0
  Fe  Fe5  1  0.32929600  0.16464800  0.16643400  1.0
  Fe  Fe6  1  0.33333333  0.66666667  0.66537800  1.0
  Fe  Fe7  1  0.50017600  0.49982400  0.49932800  1.0
  Fe  Fe8  1  0.16768800  0.33537600  0.83308200  1.0
  Fe  Fe9  1  0.16768800  0.83231200  0.83308200  1.0
  Fe  Fe10  1  0.66462400  0.83231200  0.83308200  1.0
  Fe  Fe11  1  0.66666667  0.33333333  0.95705800  1.0
