# generated using pymatgen
data_Fe
_symmetry_space_group_name_H-M   'P 1'
_cell_length_a   2.93590600
_cell_length_b   5.07849391
_cell_length_c   10.05653000
_cell_angle_alpha   90.00000000
_cell_angle_beta   90.00000000
_cell_angle_gamma   106.80125840
_symmetry_Int_Tables_number   1
_chemical_formula_structural   Fe
_chemical_formula_sum   Fe4
_cell_volume   143.54208824
_cell_formula_units_Z   4
loop_
 _symmetry_equiv_pos_site_id
 _symmetry_equiv_pos_as_xyz
  1  'x, y, z'
loop_
 _atom_site_type_symbol
 _atom_site_label
 _atom_site_symmetry_multiplicity
 _atom_site_fract_x
 _atom_site_fract_y
 _atom_site_fract_z
 _atom_site_occupancy
  Fe  Fe0  1  0.86847900  0.73695800  0.92614600  1.0
  Fe  Fe1  1  0.13152100  0.26304200  0.07385400  1.0
  Fe  Fe2  1  0.86847900  0.73695800  0.57385400  1.0
  Fe  Fe3  1  0.13152100  0.26304200  0.42614600  1.0
