# generated using pymatgen
data_Fe
_symmetry_space_group_name_H-M   'P 1'
_cell_length_a   5.98949876
_cell_length_b   5.99744262
_cell_length_c   5.99808803
_cell_angle_alpha   90.06579189
_cell_angle_beta   119.92775922
_cell_angle_gamma   119.90040393
_symmetry_Int_Tables_number   1
_chemical_formula_structural   Fe
_chemical_formula_sum   Fe4
_cell_volume   152.66202432
_cell_formula_units_Z   4
loop_
 _symmetry_equiv_pos_site_id
 _symmetry_equiv_pos_as_xyz
  1  'x, y, z'
loop_
 _atom_site_type_symbol
 _atom_site_label
 _atom_site_symmetry_multiplicity
 _atom_site_fract_x
 _atom_site_fract_y
 _atom_site_fract_z
 _atom_site_occupancy
  Fe  Fe0  1  0.49993100  0.99994200  0.49997100  1.0
  Fe  Fe1  1  0.00002500  0.50002800  0.00006200  1.0
  Fe  Fe2  1  0.49999600  0.50000200  0.49999600  1.0
  Fe  Fe3  1  0.99999600  0.50004100  0.49996100  1.0
