# generated using pymatgen
data_Fe
_symmetry_space_group_name_H-M   'P 1'
_cell_length_a   6.06594000
_cell_length_b   6.06594075
_cell_length_c   14.85353300
_cell_angle_alpha   90.00000000
_cell_angle_beta   90.00000000
_cell_angle_gamma   119.99999593
_symmetry_Int_Tables_number   1
_chemical_formula_structural   Fe
_chemical_formula_sum   Fe12
_cell_volume   473.32199835
_cell_formula_units_Z   12
loop_
 _symmetry_equiv_pos_site_id
 _symmetry_equiv_pos_as_xyz
  1  'x, y, z'
loop_
 _atom_site_type_symbol
 _atom_site_label
 _atom_site_symmetry_multiplicity
 _atom_site_fract_x
 _atom_site_fract_y
 _atom_site_fract_z
 _atom_site_occupancy
  Fe  Fe0  1  0.83613000  0.67226000  0.16618800  1.0
  Fe  Fe1  1  0.83613000  0.16387100  0.16618800  1.0
  Fe  Fe2  1  0.50201700  0.00403400  0.49917500  1.0
  Fe  Fe3  1  0.32774100  0.16387100  0.16618800  1.0
  Fe  Fe4  1  0.50201700  0.49798300  0.49917500  1.0
  Fe  Fe5  1  0.33333333  0.66666667  0.66439200  1.0
  Fe  Fe6  1  0.33333333  0.66666667  0.28837100  1.0
  Fe  Fe7  1  0.16778300  0.33556600  0.83246200  1.0
  Fe  Fe8  1  0.99596600  0.49798300  0.49917500  1.0
  Fe  Fe9  1  0.16778300  0.83221800  0.83246200  1.0
  Fe  Fe10  1  0.66443500  0.83221800  0.83246200  1.0
  Fe  Fe11  1  0.66666667  0.33333333  0.95708400  1.0
