# generated using pymatgen
data_Fe
_symmetry_space_group_name_H-M   'P 1'
_cell_length_a   2.94649200
_cell_length_b   7.74672457
_cell_length_c   8.04623765
_cell_angle_alpha   71.78726133
_cell_angle_beta   79.44976732
_cell_angle_gamma   79.03690749
_symmetry_Int_Tables_number   1
_chemical_formula_structural   Fe
_chemical_formula_sum   Fe4
_cell_volume   169.76343145
_cell_formula_units_Z   4
loop_
 _symmetry_equiv_pos_site_id
 _symmetry_equiv_pos_as_xyz
  1  'x, y, z'
loop_
 _atom_site_type_symbol
 _atom_site_label
 _atom_site_symmetry_multiplicity
 _atom_site_fract_x
 _atom_site_fract_y
 _atom_site_fract_z
 _atom_site_occupancy
  Fe  Fe0  1  0.39623600  0.41154500  0.79598300  1.0
  Fe  Fe1  1  0.85152400  0.81760300  0.47934900  1.0
  Fe  Fe2  1  0.14847600  0.18239700  0.52065100  1.0
  Fe  Fe3  1  0.60376400  0.58845500  0.20401700  1.0
