# generated using pymatgen
data_Fe
_symmetry_space_group_name_H-M   'P 1'
_cell_length_a   6.04811088
_cell_length_b   6.04811088
_cell_length_c   24.95813782
_cell_angle_alpha   83.11840115
_cell_angle_beta   83.11840115
_cell_angle_gamma   60.15547068
_symmetry_Int_Tables_number   1
_chemical_formula_structural   Fe
_chemical_formula_sum   Fe20
_cell_volume   784.25447362
_cell_formula_units_Z   20
loop_
 _symmetry_equiv_pos_site_id
 _symmetry_equiv_pos_as_xyz
  1  'x, y, z'
loop_
 _atom_site_type_symbol
 _atom_site_label
 _atom_site_symmetry_multiplicity
 _atom_site_fract_x
 _atom_site_fract_y
 _atom_site_fract_z
 _atom_site_occupancy
  Fe  Fe0  1  0.34792700  0.34792700  0.94956700  1.0
  Fe  Fe1  1  0.36894900  0.87730600  0.87445800  1.0
  Fe  Fe2  1  0.67592500  0.67592500  0.97612400  1.0
  Fe  Fe3  1  0.74579900  0.74579900  0.75037800  1.0
  Fe  Fe4  1  0.87730600  0.36894900  0.87445800  1.0
  Fe  Fe5  1  0.76900600  0.27727900  0.67427800  1.0
  Fe  Fe6  1  0.07407800  0.07407800  0.77581800  1.0
  Fe  Fe7  1  0.14569600  0.14569600  0.55028200  1.0
  Fe  Fe8  1  0.27727900  0.76900600  0.67427800  1.0
  Fe  Fe9  1  0.16916500  0.67699300  0.47410300  1.0
  Fe  Fe10  1  0.47415300  0.47415300  0.57554600  1.0
  Fe  Fe11  1  0.54682400  0.54682400  0.35134200  1.0
  Fe  Fe12  1  0.67699300  0.16916500  0.47410300  1.0
  Fe  Fe13  1  0.57182900  0.07573300  0.27445800  1.0
  Fe  Fe14  1  0.87503600  0.87503600  0.37600100  1.0
  Fe  Fe15  1  0.07573300  0.57182900  0.27445800  1.0
  Fe  Fe16  1  0.47539400  0.47539400  0.07589900  1.0
  Fe  Fe17  1  0.97346500  0.47531400  0.07598000  1.0
  Fe  Fe18  1  0.27212400  0.27212400  0.17634000  1.0
  Fe  Fe19  1  0.47531400  0.97346500  0.07598000  1.0
