# generated using pymatgen
data_Fe
_symmetry_space_group_name_H-M   'P 1'
_cell_length_a   5.96294534
_cell_length_b   6.08756513
_cell_length_c   29.61054023
_cell_angle_alpha   88.62571060
_cell_angle_beta   88.38755051
_cell_angle_gamma   60.95239745
_symmetry_Int_Tables_number   1
_chemical_formula_structural   Fe
_chemical_formula_sum   Fe22
_cell_volume   939.22044828
_cell_formula_units_Z   22
loop_
 _symmetry_equiv_pos_site_id
 _symmetry_equiv_pos_as_xyz
  1  'x, y, z'
loop_
 _atom_site_type_symbol
 _atom_site_label
 _atom_site_symmetry_multiplicity
 _atom_site_fract_x
 _atom_site_fract_y
 _atom_site_fract_z
 _atom_site_occupancy
  Fe  Fe0  1  0.49312987  0.03719593  0.00097081  1.0
  Fe  Fe1  1  0.52274906  0.91830988  0.81934551  1.0
  Fe  Fe2  1  0.35067931  0.33267540  0.91373843  1.0
  Fe  Fe3  1  0.18919773  0.58790191  0.65510456  1.0
  Fe  Fe4  1  0.13025400  0.71664044  0.83788222  1.0
  Fe  Fe5  1  0.01283766  0.00330622  0.74758402  1.0
  Fe  Fe6  1  0.84451796  0.33192147  0.85121034  1.0
  Fe  Fe7  1  0.79762542  0.38248446  0.67246588  1.0
  Fe  Fe8  1  0.68228537  0.65986494  0.58179993  1.0
  Fe  Fe9  1  0.51227827  0.99505432  0.68437996  1.0
  Fe  Fe10  1  0.45940228  0.04499949  0.50671846  1.0
  Fe  Fe11  1  0.33532129  0.32702323  0.41734197  1.0
  Fe  Fe12  1  0.16717318  0.66946602  0.51861223  1.0
  Fe  Fe13  1  0.16258796  0.66426585  0.33158074  1.0
  Fe  Fe14  1  0.00326737  0.99219582  0.25005966  1.0
  Fe  Fe15  1  0.83610603  0.33580187  0.35184215  1.0
  Fe  Fe16  1  0.83591096  0.34106793  0.16566320  1.0
  Fe  Fe17  1  0.00078751  0.50131495  0.24964026  1.0
  Fe  Fe18  1  0.67080416  0.66706023  0.08249087  1.0
  Fe  Fe19  1  0.51373055  0.98963094  0.18707010  1.0
  Fe  Fe20  1  0.66841523  0.17603061  0.08565254  1.0
  Fe  Fe21  1  0.18512747  0.66137895  0.01926464  1.0
