# generated using pymatgen
data_Fe
_symmetry_space_group_name_H-M   'P 1'
_cell_length_a   6.05146200
_cell_length_b   6.05775492
_cell_length_c   14.75636451
_cell_angle_alpha   89.61864847
_cell_angle_beta   90.00000000
_cell_angle_gamma   119.96564205
_symmetry_Int_Tables_number   1
_chemical_formula_structural   Fe
_chemical_formula_sum   Fe12
_cell_volume   468.61852516
_cell_formula_units_Z   12
loop_
 _symmetry_equiv_pos_site_id
 _symmetry_equiv_pos_as_xyz
  1  'x, y, z'
loop_
 _atom_site_type_symbol
 _atom_site_label
 _atom_site_symmetry_multiplicity
 _atom_site_fract_x
 _atom_site_fract_y
 _atom_site_fract_z
 _atom_site_occupancy
  Fe  Fe0  1  0.83212500  0.16603200  0.16582900  1.0
  Fe  Fe1  1  0.00588300  0.01176600  0.37809700  1.0
  Fe  Fe2  1  0.00019000  0.00038000  0.00239700  1.0
  Fe  Fe3  1  0.33390700  0.16603200  0.16582900  1.0
  Fe  Fe4  1  0.50027300  0.50326700  0.49977000  1.0
  Fe  Fe5  1  0.67360400  0.34720800  0.70974300  1.0
  Fe  Fe6  1  0.00299400  0.50326700  0.49977000  1.0
  Fe  Fe7  1  0.16818700  0.83622700  0.83362800  1.0
  Fe  Fe8  1  0.32924100  0.65848200  0.28807700  1.0
  Fe  Fe9  1  0.66804000  0.83622700  0.83362800  1.0
  Fe  Fe10  1  0.99734300  0.99468600  0.62326100  1.0
  Fe  Fe11  1  0.65992600  0.31985200  0.95960800  1.0
