# generated using pymatgen
data_Fe
_symmetry_space_group_name_H-M   'P 1'
_cell_length_a   4.97723200
_cell_length_b   5.76948500
_cell_length_c   10.21706100
_cell_angle_alpha   90.00000000
_cell_angle_beta   90.97028351
_cell_angle_gamma   90.00000000
_symmetry_Int_Tables_number   1
_chemical_formula_structural   Fe
_chemical_formula_sum   Fe8
_cell_volume   293.35172248
_cell_formula_units_Z   8
loop_
 _symmetry_equiv_pos_site_id
 _symmetry_equiv_pos_as_xyz
  1  'x, y, z'
loop_
 _atom_site_type_symbol
 _atom_site_label
 _atom_site_symmetry_multiplicity
 _atom_site_fract_x
 _atom_site_fract_y
 _atom_site_fract_z
 _atom_site_occupancy
  Fe  Fe0  1  0.98850700  0.24927500  0.50989700  1.0
  Fe  Fe1  1  0.98801800  0.25141400  0.98383000  1.0
  Fe  Fe2  1  0.01149300  0.74927500  0.49010300  1.0
  Fe  Fe3  1  0.01198200  0.75141400  0.01617000  1.0
  Fe  Fe4  1  0.49993400  0.50022600  0.49999200  1.0
  Fe  Fe5  1  0.49916800  0.99918100  0.00129400  1.0
  Fe  Fe6  1  0.50006600  0.00022600  0.50000800  1.0
  Fe  Fe7  1  0.50083200  0.49918100  0.99870600  1.0
