# generated using pymatgen
data_Fe
_symmetry_space_group_name_H-M   'P 1'
_cell_length_a   2.92111000
_cell_length_b   9.05179800
_cell_length_c   10.41372275
_cell_angle_alpha   91.67294047
_cell_angle_beta   90.00000000
_cell_angle_gamma   90.00000000
_symmetry_Int_Tables_number   1
_chemical_formula_structural   Fe
_chemical_formula_sum   Fe8
_cell_volume   275.23497658
_cell_formula_units_Z   8
loop_
 _symmetry_equiv_pos_site_id
 _symmetry_equiv_pos_as_xyz
  1  'x, y, z'
loop_
 _atom_site_type_symbol
 _atom_site_label
 _atom_site_symmetry_multiplicity
 _atom_site_fract_x
 _atom_site_fract_y
 _atom_site_fract_z
 _atom_site_occupancy
  Fe  Fe0  1  0.50000000  0.40975100  0.10146400  1.0
  Fe  Fe1  1  1.00000000  0.08432000  0.60155400  1.0
  Fe  Fe2  1  0.50000000  0.91315000  0.40121600  1.0
  Fe  Fe3  1  1.00000000  0.59336400  0.89686200  1.0
  Fe  Fe4  1  1.00000000  0.56774800  0.38304200  1.0
  Fe  Fe5  1  0.50000000  0.43466000  0.61813500  1.0
  Fe  Fe6  1  1.00000000  0.05852900  0.12051000  1.0
  Fe  Fe7  1  0.50000000  0.94239200  0.87808400  1.0
