# generated using pymatgen
data_Fe
_symmetry_space_group_name_H-M   'P 1'
_cell_length_a   6.05165600
_cell_length_b   6.05165528
_cell_length_c   29.60790800
_cell_angle_alpha   90.00000000
_cell_angle_beta   90.00000000
_cell_angle_gamma   120.00000394
_symmetry_Int_Tables_number   1
_chemical_formula_structural   Fe
_chemical_formula_sum   Fe24
_cell_volume   939.04575006
_cell_formula_units_Z   24
loop_
 _symmetry_equiv_pos_site_id
 _symmetry_equiv_pos_as_xyz
  1  'x, y, z'
loop_
 _atom_site_type_symbol
 _atom_site_label
 _atom_site_symmetry_multiplicity
 _atom_site_fract_x
 _atom_site_fract_y
 _atom_site_fract_z
 _atom_site_occupancy
  Fe  Fe0  1  0.16928000  0.33856000  0.08316000  1.0
  Fe  Fe1  1  0.16928000  0.83072100  0.08316000  1.0
  Fe  Fe2  1  0.83521200  0.67042400  0.24987300  1.0
  Fe  Fe3  1  0.66144100  0.83072100  0.08316000  1.0
  Fe  Fe4  1  0.66666667  0.33333333  0.14500500  1.0
  Fe  Fe5  1  0.66666667  0.33333333  0.33270500  1.0
  Fe  Fe6  1  0.83521200  0.16478900  0.24987300  1.0
  Fe  Fe7  1  0.32957700  0.16478900  0.24987300  1.0
  Fe  Fe8  1  0.50037000  0.00074000  0.41622500  1.0
  Fe  Fe9  1  0.33333333  0.66666667  0.49951200  1.0
  Fe  Fe10  1  0.50037000  0.49963000  0.41622500  1.0
  Fe  Fe11  1  0.16682900  0.33365800  0.58313100  1.0
  Fe  Fe12  1  0.99926000  0.49963000  0.41622500  1.0
  Fe  Fe13  1  0.33308900  0.16654400  0.74978500  1.0
  Fe  Fe14  1  0.16682900  0.83317000  0.58313100  1.0
  Fe  Fe15  1  0.00000000  0.00000000  0.66627400  1.0
  Fe  Fe16  1  0.83345500  0.66691000  0.74978500  1.0
  Fe  Fe17  1  0.66634100  0.83317000  0.58313100  1.0
  Fe  Fe18  1  0.66666667  0.33333333  0.83304100  1.0
  Fe  Fe19  1  0.83345500  0.16654400  0.74978500  1.0
  Fe  Fe20  1  0.50090600  0.00181200  0.91670900  1.0
  Fe  Fe21  1  0.50090600  0.49909500  0.91670900  1.0
  Fe  Fe22  1  0.99818900  0.49909500  0.91670900  1.0
  Fe  Fe23  1  0.00000000  0.00000000  0.97889800  1.0
