# generated using pymatgen
data_Fe
_symmetry_space_group_name_H-M   'P 1'
_cell_length_a   5.98585341
_cell_length_b   6.01606334
_cell_length_c   24.78344825
_cell_angle_alpha   83.54645038
_cell_angle_beta   83.24507920
_cell_angle_gamma   60.24691021
_symmetry_Int_Tables_number   1
_chemical_formula_structural   Fe
_chemical_formula_sum   Fe20
_cell_volume   767.93843307
_cell_formula_units_Z   20
loop_
 _symmetry_equiv_pos_site_id
 _symmetry_equiv_pos_as_xyz
  1  'x, y, z'
loop_
 _atom_site_type_symbol
 _atom_site_label
 _atom_site_symmetry_multiplicity
 _atom_site_fract_x
 _atom_site_fract_y
 _atom_site_fract_z
 _atom_site_occupancy
  Fe  Fe0  1  0.49745900  0.00556900  0.00019300  1.0
  Fe  Fe1  1  0.69464400  0.70549900  0.90119400  1.0
  Fe  Fe2  1  0.69729400  0.19680500  0.90049200  1.0
  Fe  Fe3  1  0.90005500  0.40171400  0.79874500  1.0
  Fe  Fe4  1  0.09790600  0.10402600  0.70108100  1.0
  Fe  Fe5  1  0.21585900  0.72721000  0.82465400  1.0
  Fe  Fe6  1  0.09820700  0.59837400  0.70040500  1.0
  Fe  Fe7  1  0.29814000  0.80094700  0.59878200  1.0
  Fe  Fe8  1  0.38186600  0.86394100  0.37396500  1.0
  Fe  Fe9  1  0.49924600  0.50088700  0.49933100  1.0
  Fe  Fe10  1  0.61799100  0.12821000  0.62477500  1.0
  Fe  Fe11  1  0.49704500  0.00032100  0.49995400  1.0
  Fe  Fe12  1  0.70194300  0.19465100  0.39840100  1.0
  Fe  Fe13  1  0.78009600  0.26203400  0.17722200  1.0
  Fe  Fe14  1  0.90006700  0.90004900  0.29933300  1.0
  Fe  Fe15  1  0.01626400  0.53315100  0.42194500  1.0
  Fe  Fe16  1  0.09856300  0.60146800  0.20118600  1.0
  Fe  Fe17  1  0.29561100  0.30714000  0.10138900  1.0
  Fe  Fe18  1  0.41968400  0.93666100  0.22331900  1.0
  Fe  Fe19  1  0.81735900  0.33799700  0.02465300  1.0
