# generated using pymatgen
data_TiFe
_symmetry_space_group_name_H-M   'P 1'
_cell_length_a   5.13548844
_cell_length_b   5.60098477
_cell_length_c   33.87333427
_cell_angle_alpha   92.51769971
_cell_angle_beta   90.48235733
_cell_angle_gamma   63.11434029
_symmetry_Int_Tables_number   1
_chemical_formula_structural   TiFe
_chemical_formula_sum   'Ti16 Fe16'
_cell_volume   868.10094106
_cell_formula_units_Z   16
loop_
 _symmetry_equiv_pos_site_id
 _symmetry_equiv_pos_as_xyz
  1  'x, y, z'
loop_
 _atom_site_type_symbol
 _atom_site_label
 _atom_site_symmetry_multiplicity
 _atom_site_fract_x
 _atom_site_fract_y
 _atom_site_fract_z
 _atom_site_occupancy
  Ti  Ti0  1  0.50755500  0.98283700  0.04157500  1.0
  Ti  Ti1  1  0.12500900  0.72306500  0.16773700  1.0
  Ti  Ti2  1  0.04987800  0.89096900  0.26893900  1.0
  Ti  Ti3  1  0.81308100  0.35604600  0.10618000  1.0
  Ti  Ti4  1  0.67696000  0.64674200  0.39288600  1.0
  Ti  Ti5  1  0.45240500  0.10115100  0.23134500  1.0
  Ti  Ti6  1  0.30052500  0.39847600  0.51866200  1.0
  Ti  Ti7  1  0.07597100  0.84927500  0.35710600  1.0
  Ti  Ti8  1  0.92714200  0.14427300  0.64359200  1.0
  Ti  Ti9  1  0.69888800  0.60184500  0.48172700  1.0
  Ti  Ti10  1  0.54976400  0.89810200  0.76797500  1.0
  Ti  Ti11  1  0.32143600  0.35174700  0.60732200  1.0
  Ti  Ti12  1  0.18187300  0.64937000  0.89255200  1.0
  Ti  Ti13  1  0.94999900  0.09911000  0.73175800  1.0
  Ti  Ti14  1  0.57873500  0.84920200  0.85692900  1.0
  Ti  Ti15  1  0.17706000  0.60382000  0.98036900  1.0
  Fe  Fe16  1  0.80120300  0.39933400  0.01824500  1.0
  Fe  Fe17  1  0.42666000  0.14623000  0.14147000  1.0
  Fe  Fe18  1  0.11261100  0.77748600  0.08010100  1.0
  Fe  Fe19  1  0.77040900  0.45961600  0.29371800  1.0
  Fe  Fe20  1  0.74548000  0.51911200  0.20610600  1.0
  Fe  Fe21  1  0.38598500  0.22478200  0.41953300  1.0
  Fe  Fe22  1  0.36336900  0.27404300  0.33015500  1.0
  Fe  Fe23  1  0.00525900  0.97721300  0.54430800  1.0
  Fe  Fe24  1  0.99086900  0.02375200  0.45599000  1.0
  Fe  Fe25  1  0.64249000  0.71197000  0.66840800  1.0
  Fe  Fe26  1  0.61443200  0.77482000  0.58140200  1.0
  Fe  Fe27  1  0.25484100  0.47481000  0.79410100  1.0
  Fe  Fe28  1  0.24087900  0.52547000  0.70584600  1.0
  Fe  Fe29  1  0.88642600  0.22917700  0.91934500  1.0
  Fe  Fe30  1  0.86810900  0.27280600  0.83078300  1.0
  Fe  Fe31  1  0.48087600  0.02781200  0.95605700  1.0
