# generated using pymatgen
data_TiFe
_symmetry_space_group_name_H-M   'P 1'
_cell_length_a   5.13076939
_cell_length_b   5.13936127
_cell_length_c   5.55420694
_cell_angle_alpha   91.59497479
_cell_angle_beta   115.58158959
_cell_angle_gamma   119.41011590
_symmetry_Int_Tables_number   1
_chemical_formula_structural   TiFe
_chemical_formula_sum   'Ti2 Fe2'
_cell_volume   109.58326819
_cell_formula_units_Z   2
loop_
 _symmetry_equiv_pos_site_id
 _symmetry_equiv_pos_as_xyz
  1  'x, y, z'
loop_
 _atom_site_type_symbol
 _atom_site_label
 _atom_site_symmetry_multiplicity
 _atom_site_fract_x
 _atom_site_fract_y
 _atom_site_fract_z
 _atom_site_occupancy
  Fe  Fe0  1  0.70850200  0.35254200  0.06465200  1.0
  Fe  Fe1  1  0.29145850  0.64745200  0.93533250  1.0
  Ti  Ti2  1  0.28859850  0.14439700  0.43632350  1.0
  Ti  Ti3  1  0.71140800  0.85558900  0.56368200  1.0
