# generated using pymatgen
data_TiFe
_symmetry_space_group_name_H-M   'P 1'
_cell_length_a   5.19711073
_cell_length_b   5.19840935
_cell_length_c   5.52177197
_cell_angle_alpha   61.96645431
_cell_angle_beta   90.01277699
_cell_angle_gamma   60.00543144
_symmetry_Int_Tables_number   1
_chemical_formula_structural   TiFe
_chemical_formula_sum   'Ti2 Fe2'
_cell_volume   108.51128835
_cell_formula_units_Z   2
loop_
 _symmetry_equiv_pos_site_id
 _symmetry_equiv_pos_as_xyz
  1  'x, y, z'
loop_
 _atom_site_type_symbol
 _atom_site_label
 _atom_site_symmetry_multiplicity
 _atom_site_fract_x
 _atom_site_fract_y
 _atom_site_fract_z
 _atom_site_occupancy
  Ti  Ti0  1  0.00199900  0.99539400  0.00693600  1.0
  Ti  Ti1  1  0.50278800  0.99525000  0.50689500  1.0
  Fe  Fe2  1  0.28861100  0.42273000  0.86588900  1.0
  Fe  Fe3  1  0.78847200  0.42252700  0.36588400  1.0
