# generated using pymatgen
data_Fe
_symmetry_space_group_name_H-M   'P 1'
_cell_length_a   9.94488474
_cell_length_b   10.45738094
_cell_length_c   10.65905178
_cell_angle_alpha   98.78090987
_cell_angle_beta   92.42560165
_cell_angle_gamma   86.29305634
_symmetry_Int_Tables_number   1
_chemical_formula_structural   Fe
_chemical_formula_sum   Fe40
_cell_volume   1092.63752067
_cell_formula_units_Z   40
loop_
 _symmetry_equiv_pos_site_id
 _symmetry_equiv_pos_as_xyz
  1  'x, y, z'
loop_
 _atom_site_type_symbol
 _atom_site_label
 _atom_site_symmetry_multiplicity
 _atom_site_fract_x
 _atom_site_fract_y
 _atom_site_fract_z
 _atom_site_occupancy
  Fe  Fe0  1  0.89362397  0.85573518  0.11498183  1.0
  Fe  Fe1  1  0.16559853  0.64573213  0.23832043  1.0
  Fe  Fe2  1  0.15737202  0.05763489  0.99791169  1.0
  Fe  Fe3  1  0.84945497  0.98093295  0.84001253  1.0
  Fe  Fe4  1  0.57211289  0.98369875  0.05996165  1.0
  Fe  Fe5  1  0.33150474  0.85429787  0.13686629  1.0
  Fe  Fe6  1  0.92983377  0.56650619  0.89498493  1.0
  Fe  Fe7  1  0.69195438  0.75434475  0.84553675  1.0
  Fe  Fe8  1  0.88284371  0.46835339  0.31621593  1.0
  Fe  Fe9  1  0.21100216  0.41631455  0.40327437  1.0
  Fe  Fe10  1  0.72192741  0.44835250  0.57007925  1.0
  Fe  Fe11  1  0.40637706  0.30414794  0.67780894  1.0
  Fe  Fe12  1  0.30033006  0.78978292  0.47522930  1.0
  Fe  Fe13  1  0.71221000  0.93818050  0.56472620  1.0
  Fe  Fe14  1  0.35821232  0.18352375  0.17304899  1.0
  Fe  Fe15  1  0.94884652  0.26962026  0.88198821  1.0
  Fe  Fe16  1  0.22501383  0.38419258  0.88761923  1.0
  Fe  Fe17  1  0.08011200  0.95105232  0.28245695  1.0
  Fe  Fe18  1  0.57697739  0.19761213  0.87339079  1.0
  Fe  Fe19  1  0.66936615  0.67041843  0.14031950  1.0
  Fe  Fe20  1  0.01002615  0.96379737  0.57602453  1.0
  Fe  Fe21  1  0.64358012  0.69279711  0.45787647  1.0
  Fe  Fe22  1  0.22692397  0.09647513  0.72917073  1.0
  Fe  Fe23  1  0.10154895  0.33532889  0.12469222  1.0
  Fe  Fe24  1  0.46320453  0.50692677  0.34734329  1.0
  Fe  Fe25  1  0.16185758  0.81288845  0.71545655  1.0
  Fe  Fe26  1  0.44093205  0.58032689  0.68544418  1.0
  Fe  Fe27  1  0.55423638  0.91118572  0.31729654  1.0
  Fe  Fe28  1  0.90797157  0.76776210  0.39862540  1.0
  Fe  Fe29  1  0.02794183  0.30879294  0.60152529  1.0
  Fe  Fe30  1  0.13519566  0.73763150  0.95742628  1.0
  Fe  Fe31  1  0.73538942  0.18930938  0.64971191  1.0
  Fe  Fe32  1  0.46165346  0.92027786  0.67697019  1.0
  Fe  Fe33  1  0.42513090  0.54090656  0.99769813  1.0
  Fe  Fe34  1  0.97192984  0.60744094  0.61916861  1.0
  Fe  Fe35  1  0.65852263  0.48192777  0.83550855  1.0
  Fe  Fe36  1  0.60381620  0.35648037  0.13448020  1.0
  Fe  Fe37  1  0.82366282  0.15484985  0.12110155  1.0
  Fe  Fe38  1  0.84423520  0.10571581  0.41628219  1.0
  Fe  Fe39  1  0.49319066  0.20840840  0.41824618  1.0
