# generated using pymatgen
data_Fe
_symmetry_space_group_name_H-M   'P 1'
_cell_length_a   3.04885874
_cell_length_b   3.08387862
_cell_length_c   5.27465678
_cell_angle_alpha   87.04281084
_cell_angle_beta   88.49861306
_cell_angle_gamma   60.43551876
_symmetry_Int_Tables_number   1
_chemical_formula_structural   Fe
_chemical_formula_sum   Fe2
_cell_volume   43.07941541
_cell_formula_units_Z   2
loop_
 _symmetry_equiv_pos_site_id
 _symmetry_equiv_pos_as_xyz
  1  'x, y, z'
loop_
 _atom_site_type_symbol
 _atom_site_label
 _atom_site_symmetry_multiplicity
 _atom_site_fract_x
 _atom_site_fract_y
 _atom_site_fract_z
 _atom_site_occupancy
  Fe  Fe0  1  0.99888300  0.50560400  0.49917300  1.0
  Fe  Fe1  1  0.99856100  0.50652800  0.99918400  1.0
