# generated using pymatgen
data_Fe
_symmetry_space_group_name_H-M   'P 1'
_cell_length_a   5.30786200
_cell_length_b   5.30786258
_cell_length_c   10.60447000
_cell_angle_alpha   90.00000000
_cell_angle_beta   90.00000000
_cell_angle_gamma   119.99999640
_symmetry_Int_Tables_number   1
_chemical_formula_structural   Fe
_chemical_formula_sum   Fe12
_cell_volume   258.73722084
_cell_formula_units_Z   12
loop_
 _symmetry_equiv_pos_site_id
 _symmetry_equiv_pos_as_xyz
  1  'x, y, z'
loop_
 _atom_site_type_symbol
 _atom_site_label
 _atom_site_symmetry_multiplicity
 _atom_site_fract_x
 _atom_site_fract_y
 _atom_site_fract_z
 _atom_site_occupancy
  Fe  Fe0  1  0.67276800  0.66588500  0.87518900  1.0
  Fe  Fe1  1  0.67276800  0.66588500  0.62481100  1.0
  Fe  Fe2  1  0.99311700  0.32723200  0.87518900  1.0
  Fe  Fe3  1  0.99311700  0.32723200  0.62481100  1.0
  Fe  Fe4  1  0.33411500  0.00688300  0.87518900  1.0
  Fe  Fe5  1  0.33411500  0.00688300  0.62481100  1.0
  Fe  Fe6  1  0.66588500  0.67276800  0.37518900  1.0
  Fe  Fe7  1  0.66588500  0.67276800  0.12481100  1.0
  Fe  Fe8  1  0.32723200  0.99311700  0.37518900  1.0
  Fe  Fe9  1  0.32723200  0.99311700  0.12481100  1.0
  Fe  Fe10  1  0.00688300  0.33411500  0.12481100  1.0
  Fe  Fe11  1  0.00688300  0.33411500  0.37518900  1.0
