# generated using pymatgen
data_Fe
_symmetry_space_group_name_H-M   'P 1'
_cell_length_a   9.92796734
_cell_length_b   10.50191212
_cell_length_c   11.03702129
_cell_angle_alpha   90.16730916
_cell_angle_beta   91.34188544
_cell_angle_gamma   88.24561346
_symmetry_Int_Tables_number   1
_chemical_formula_structural   Fe
_chemical_formula_sum   Fe40
_cell_volume   1149.89133769
_cell_formula_units_Z   40
loop_
 _symmetry_equiv_pos_site_id
 _symmetry_equiv_pos_as_xyz
  1  'x, y, z'
loop_
 _atom_site_type_symbol
 _atom_site_label
 _atom_site_symmetry_multiplicity
 _atom_site_fract_x
 _atom_site_fract_y
 _atom_site_fract_z
 _atom_site_occupancy
  Fe  Fe0  1  0.28574266  0.18453852  0.37022287  1.0
  Fe  Fe1  1  0.96032374  0.20391543  0.17637985  1.0
  Fe  Fe2  1  0.35309866  0.77173122  0.90685498  1.0
  Fe  Fe3  1  0.21303668  0.04374434  0.08676628  1.0
  Fe  Fe4  1  0.78591081  0.00835135  0.09356308  1.0
  Fe  Fe5  1  0.45544861  0.01183132  0.94784965  1.0
  Fe  Fe6  1  0.78526765  0.12564082  0.37763029  1.0
  Fe  Fe7  1  0.58834967  0.78576031  0.09266471  1.0
  Fe  Fe8  1  0.90013875  0.21993521  0.59963573  1.0
  Fe  Fe9  1  0.31342091  0.32032521  0.60813219  1.0
  Fe  Fe10  1  0.05083140  0.71788574  0.43862121  1.0
  Fe  Fe11  1  0.35467379  0.53482597  0.46136682  1.0
  Fe  Fe12  1  0.19206288  0.32792455  0.09084279  1.0
  Fe  Fe13  1  0.57070707  0.53648217  0.92023363  1.0
  Fe  Fe14  1  0.56824619  0.90745626  0.73403379  1.0
  Fe  Fe15  1  0.95547285  0.95159995  0.65407035  1.0
  Fe  Fe16  1  0.28125143  0.80845869  0.61237662  1.0
  Fe  Fe17  1  0.96756249  0.48921040  0.05120746  1.0
  Fe  Fe18  1  0.22624842  0.49250489  0.81779752  1.0
  Fe  Fe19  1  0.64707884  0.37765515  0.40950689  1.0
  Fe  Fe20  1  0.86846269  0.70933600  0.20660221  1.0
  Fe  Fe21  1  0.43122024  0.50309253  0.16302244  1.0
  Fe  Fe22  1  0.20011677  0.75536094  0.17062114  1.0
  Fe  Fe23  1  0.24326262  0.07485893  0.71426913  1.0
  Fe  Fe24  1  0.47474082  0.96371316  0.50344259  1.0
  Fe  Fe25  1  0.55356709  0.97930556  0.25559320  1.0
  Fe  Fe26  1  0.40484727  0.75801311  0.34895171  1.0
  Fe  Fe27  1  0.05451682  0.24108972  0.85393738  1.0
  Fe  Fe28  1  0.92060628  0.44758716  0.33544573  1.0
  Fe  Fe29  1  0.75552736  0.77473829  0.88716817  1.0
  Fe  Fe30  1  0.01539812  0.98657495  0.32649378  1.0
  Fe  Fe31  1  0.53703743  0.48230277  0.66592126  1.0
  Fe  Fe32  1  0.03483899  0.71365891  0.76259326  1.0
  Fe  Fe33  1  0.55357177  0.18605730  0.62872200  1.0
  Fe  Fe34  1  0.06429152  0.47466782  0.59019782  1.0
  Fe  Fe35  1  0.68248433  0.70172448  0.45762704  1.0
  Fe  Fe36  1  0.71875557  0.20326289  0.88407581  1.0
  Fe  Fe37  1  0.71741516  0.36974786  0.12884651  1.0
  Fe  Fe38  1  0.81900782  0.46357460  0.80458210  1.0
  Fe  Fe39  1  0.39384388  0.27410194  0.90502779  1.0
