# generated using pymatgen
data_Fe
_symmetry_space_group_name_H-M   'P 1'
_cell_length_a   9.98227324
_cell_length_b   10.33301314
_cell_length_c   10.70630114
_cell_angle_alpha   88.93808094
_cell_angle_beta   82.18258955
_cell_angle_gamma   90.40945301
_symmetry_Int_Tables_number   1
_chemical_formula_structural   Fe
_chemical_formula_sum   Fe40
_cell_volume   1093.81946307
_cell_formula_units_Z   40
loop_
 _symmetry_equiv_pos_site_id
 _symmetry_equiv_pos_as_xyz
  1  'x, y, z'
loop_
 _atom_site_type_symbol
 _atom_site_label
 _atom_site_symmetry_multiplicity
 _atom_site_fract_x
 _atom_site_fract_y
 _atom_site_fract_z
 _atom_site_occupancy
  Fe  Fe0  1  0.70105476  0.91552389  0.07873525  1.0
  Fe  Fe1  1  0.36380263  0.50600440  0.10689445  1.0
  Fe  Fe2  1  0.33490017  0.28564674  0.92913550  1.0
  Fe  Fe3  1  0.82626689  0.14722122  0.80788688  1.0
  Fe  Fe4  1  0.43929848  0.77522645  0.16873918  1.0
  Fe  Fe5  1  0.32786210  0.73991387  0.43794338  1.0
  Fe  Fe6  1  0.94082922  0.43499999  0.95885290  1.0
  Fe  Fe7  1  0.53400302  0.58960373  0.83936498  1.0
  Fe  Fe8  1  0.06702829  0.34480658  0.21464329  1.0
  Fe  Fe9  1  0.30779247  0.23752307  0.32358966  1.0
  Fe  Fe10  1  0.61103506  0.43113721  0.31694516  1.0
  Fe  Fe11  1  0.42695507  0.53237610  0.59618742  1.0
  Fe  Fe12  1  0.12657706  0.78767281  0.68339898  1.0
  Fe  Fe13  1  0.73305822  0.88671900  0.75705753  1.0
  Fe  Fe14  1  0.21812729  0.98262800  0.44864688  1.0
  Fe  Fe15  1  0.99543206  0.42853805  0.63211692  1.0
  Fe  Fe16  1  0.87940001  0.68262757  0.85348975  1.0
  Fe  Fe17  1  0.00168968  0.01050223  0.27698912  1.0
  Fe  Fe18  1  0.50439765  0.06484605  0.85472019  1.0
  Fe  Fe19  1  0.62793363  0.73314017  0.32592508  1.0
  Fe  Fe20  1  0.72467337  0.94483706  0.50750059  1.0
  Fe  Fe21  1  0.20647316  0.50591932  0.38960583  1.0
  Fe  Fe22  1  0.17759471  0.02106091  0.84906286  1.0
  Fe  Fe23  1  0.28137293  0.05141150  0.09682370  1.0
  Fe  Fe24  1  0.66191236  0.61136650  0.08172973  1.0
  Fe  Fe25  1  0.97798265  0.00169530  0.61938570  1.0
  Fe  Fe26  1  0.21216734  0.51940552  0.78098010  1.0
  Fe  Fe27  1  0.51635464  0.05730059  0.35345830  1.0
  Fe  Fe28  1  0.92839758  0.64613279  0.18948413  1.0
  Fe  Fe29  1  0.27644617  0.21656937  0.63106273  1.0
  Fe  Fe30  1  0.00832933  0.85485883  0.03806738  1.0
  Fe  Fe31  1  0.67252386  0.30838477  0.62148636  1.0
  Fe  Fe32  1  0.41955703  0.83202256  0.66025524  1.0
  Fe  Fe33  1  0.30665496  0.76154862  0.92013100  1.0
  Fe  Fe34  1  0.95673063  0.73992372  0.43854315  1.0
  Fe  Fe35  1  0.66460308  0.36590045  0.88813512  1.0
  Fe  Fe36  1  0.56580816  0.22698847  0.13831338  1.0
  Fe  Fe37  1  0.92023795  0.15410939  0.05942522  1.0
  Fe  Fe38  1  0.89443287  0.25437097  0.43063264  1.0
  Fe  Fe39  1  0.72812884  0.56255199  0.52186480  1.0
