# generated using pymatgen
data_Cr2Hg
_symmetry_space_group_name_H-M   'P 1'
_cell_length_a   2.99192600
_cell_length_b   5.52481551
_cell_length_c   9.15043430
_cell_angle_alpha   98.80630094
_cell_angle_beta   99.40926331
_cell_angle_gamma   90.00000000
_symmetry_Int_Tables_number   1
_chemical_formula_structural   Cr2Hg
_chemical_formula_sum   'Cr2 Hg1'
_cell_volume   147.41250362
_cell_formula_units_Z   1
loop_
 _symmetry_equiv_pos_site_id
 _symmetry_equiv_pos_as_xyz
  1  'x, y, z'
loop_
 _atom_site_type_symbol
 _atom_site_label
 _atom_site_symmetry_multiplicity
 _atom_site_fract_x
 _atom_site_fract_y
 _atom_site_fract_z
 _atom_site_occupancy
  Cr  Cr0  1  0.24586200  0.19586600  0.49172400  1.0
  Cr  Cr1  1  0.75413800  0.80413400  0.50827600  1.0
  Hg  Hg2  1  0.50000000  0.50000000  0.00000000  1.0
