# generated using pymatgen
data_Cr2Hg
_symmetry_space_group_name_H-M   'P 1'
_cell_length_a   3.52385300
_cell_length_b   11.20465600
_cell_length_c   12.85376900
_cell_angle_alpha   90.00000000
_cell_angle_beta   90.00000000
_cell_angle_gamma   90.00000000
_symmetry_Int_Tables_number   1
_chemical_formula_structural   Cr2Hg
_chemical_formula_sum   'Cr8 Hg4'
_cell_volume   507.51256802
_cell_formula_units_Z   4
loop_
 _symmetry_equiv_pos_site_id
 _symmetry_equiv_pos_as_xyz
  1  'x, y, z'
loop_
 _atom_site_type_symbol
 _atom_site_label
 _atom_site_symmetry_multiplicity
 _atom_site_fract_x
 _atom_site_fract_y
 _atom_site_fract_z
 _atom_site_occupancy
  Cr  Cr0  1  0.25000000  0.05425500  0.11262400  1.0
  Cr  Cr1  1  0.75000000  0.94574500  0.88737600  1.0
  Cr  Cr2  1  0.75000000  0.44574500  0.61262400  1.0
  Cr  Cr3  1  0.25000000  0.55425500  0.38737600  1.0
  Cr  Cr4  1  0.25000000  0.08816800  0.59365600  1.0
  Cr  Cr5  1  0.75000000  0.91183200  0.40634400  1.0
  Cr  Cr6  1  0.75000000  0.41183200  0.09365600  1.0
  Cr  Cr7  1  0.25000000  0.58816800  0.90634400  1.0
  Hg  Hg8  1  0.25000000  0.24125300  0.32027000  1.0
  Hg  Hg9  1  0.75000000  0.75874700  0.67973000  1.0
  Hg  Hg10  1  0.75000000  0.25874700  0.82027000  1.0
  Hg  Hg11  1  0.25000000  0.74125300  0.17973000  1.0
