# generated using pymatgen
data_Co
_symmetry_space_group_name_H-M   'P 1'
_cell_length_a   5.43743314
_cell_length_b   5.48281453
_cell_length_c   5.48584711
_cell_angle_alpha   60.83179291
_cell_angle_beta   61.66827594
_cell_angle_gamma   61.58991728
_symmetry_Int_Tables_number   1
_chemical_formula_structural   Co
_chemical_formula_sum   Co2
_cell_volume   119.17249539
_cell_formula_units_Z   2
loop_
 _symmetry_equiv_pos_site_id
 _symmetry_equiv_pos_as_xyz
  1  'x, y, z'
loop_
 _atom_site_type_symbol
 _atom_site_label
 _atom_site_symmetry_multiplicity
 _atom_site_fract_x
 _atom_site_fract_y
 _atom_site_fract_z
 _atom_site_occupancy
  Co  Co0  1  0.49999900  0.00000100  1.00000000  1.0
  Co  Co1  1  0.99999900  0.50000100  0.50000000  1.0
