# generated using pymatgen
data_Cr
_symmetry_space_group_name_H-M   'P 1'
_cell_length_a   2.92171400
_cell_length_b   4.97402009
_cell_length_c   9.76704700
_cell_angle_alpha   90.00000000
_cell_angle_beta   90.00000000
_cell_angle_gamma   107.07944699
_symmetry_Int_Tables_number   1
_chemical_formula_structural   Cr
_chemical_formula_sum   Cr4
_cell_volume   135.68138331
_cell_formula_units_Z   4
loop_
 _symmetry_equiv_pos_site_id
 _symmetry_equiv_pos_as_xyz
  1  'x, y, z'
loop_
 _atom_site_type_symbol
 _atom_site_label
 _atom_site_symmetry_multiplicity
 _atom_site_fract_x
 _atom_site_fract_y
 _atom_site_fract_z
 _atom_site_occupancy
  Cr  Cr0  1  0.86637100  0.73274200  0.92672600  1.0
  Cr  Cr1  1  0.13362900  0.26725800  0.07327400  1.0
  Cr  Cr2  1  0.86637100  0.73274200  0.57327400  1.0
  Cr  Cr3  1  0.13362900  0.26725800  0.42672600  1.0
