# generated using pymatgen
data_Cr
_symmetry_space_group_name_H-M   'P 1'
_cell_length_a   5.94359680
_cell_length_b   5.94633066
_cell_length_c   14.36211778
_cell_angle_alpha   89.88639657
_cell_angle_beta   89.94799766
_cell_angle_gamma   60.05509494
_symmetry_Int_Tables_number   1
_chemical_formula_structural   Cr
_chemical_formula_sum   Cr12
_cell_volume   439.83268199
_cell_formula_units_Z   12
loop_
 _symmetry_equiv_pos_site_id
 _symmetry_equiv_pos_as_xyz
  1  'x, y, z'
loop_
 _atom_site_type_symbol
 _atom_site_label
 _atom_site_symmetry_multiplicity
 _atom_site_fract_x
 _atom_site_fract_y
 _atom_site_fract_z
 _atom_site_occupancy
  Cr  Cr0  1  0.31601800  0.34205600  0.83439900  1.0
  Cr  Cr1  1  0.50032700  0.00017900  0.50164300  1.0
  Cr  Cr2  1  0.66664900  0.16807100  0.66925400  1.0
  Cr  Cr3  1  0.84143000  0.81667800  0.83412400  1.0
  Cr  Cr4  1  0.99941100  0.00070300  0.50129500  1.0
  Cr  Cr5  1  0.84153400  0.34173600  0.83431400  1.0
  Cr  Cr6  1  0.33523300  0.83059900  0.33604200  1.0
  Cr  Cr7  1  0.50014500  0.49929200  0.50157800  1.0
  Cr  Cr8  1  0.65834700  0.67105900  0.16741000  1.0
  Cr  Cr9  1  0.17080700  0.15811700  0.16904400  1.0
  Cr  Cr10  1  0.16989800  0.67051000  0.16562600  1.0
  Cr  Cr11  1  0.66619700  0.16824000  0.04619400  1.0
