# generated using pymatgen
data_Cr
_symmetry_space_group_name_H-M   'P 1'
_cell_length_a   5.95397800
_cell_length_b   5.96475442
_cell_length_c   14.24597264
_cell_angle_alpha   89.87432166
_cell_angle_beta   90.00000000
_cell_angle_gamma   119.94025336
_symmetry_Int_Tables_number   1
_chemical_formula_structural   Cr
_chemical_formula_sum   Cr12
_cell_volume   438.41185578
_cell_formula_units_Z   12
loop_
 _symmetry_equiv_pos_site_id
 _symmetry_equiv_pos_as_xyz
  1  'x, y, z'
loop_
 _atom_site_type_symbol
 _atom_site_label
 _atom_site_symmetry_multiplicity
 _atom_site_fract_x
 _atom_site_fract_y
 _atom_site_fract_z
 _atom_site_occupancy
  Cr  Cr0  1  0.65754600  0.31509200  0.83474100  1.0
  Cr  Cr1  1  0.65791100  0.84272700  0.83466900  1.0
  Cr  Cr2  1  0.99108200  0.98216400  0.50385100  1.0
  Cr  Cr3  1  0.18481600  0.84272700  0.83466900  1.0
  Cr  Cr4  1  0.99193700  0.50976100  0.50455400  1.0
  Cr  Cr5  1  0.16701300  0.33402600  0.34081600  1.0
  Cr  Cr6  1  0.16677400  0.33354800  0.71563400  1.0
  Cr  Cr7  1  0.33006100  0.66012200  0.16063100  1.0
  Cr  Cr8  1  0.51782400  0.50976100  0.50455400  1.0
  Cr  Cr9  1  0.32842700  0.17118800  0.16797700  1.0
  Cr  Cr10  1  0.84276100  0.17118800  0.16797700  1.0
  Cr  Cr11  1  0.83235500  0.66471000  0.04344100  1.0
