# generated using pymatgen
data_Cr
_symmetry_space_group_name_H-M   'P 1'
_cell_length_a   2.99884791
_cell_length_b   7.14697305
_cell_length_c   7.14851715
_cell_angle_alpha   87.22048642
_cell_angle_beta   77.89451931
_cell_angle_gamma   77.89865887
_symmetry_Int_Tables_number   1
_chemical_formula_structural   Cr
_chemical_formula_sum   Cr4
_cell_volume   146.47441228
_cell_formula_units_Z   4
loop_
 _symmetry_equiv_pos_site_id
 _symmetry_equiv_pos_as_xyz
  1  'x, y, z'
loop_
 _atom_site_type_symbol
 _atom_site_label
 _atom_site_symmetry_multiplicity
 _atom_site_fract_x
 _atom_site_fract_y
 _atom_site_fract_z
 _atom_site_occupancy
  Cr  Cr0  1  0.83201800  0.81790800  0.51247000  1.0
  Cr  Cr1  1  0.64990100  0.51280200  0.18255500  1.0
  Cr  Cr2  1  0.34424300  0.48684300  0.81952800  1.0
  Cr  Cr3  1  0.16195300  0.18174000  0.48971800  1.0
