# generated using pymatgen
data_Cr
_symmetry_space_group_name_H-M   'P 1'
_cell_length_a   5.79378649
_cell_length_b   5.79378649
_cell_length_c   5.79378573
_cell_angle_alpha   61.07436480
_cell_angle_beta   61.07436480
_cell_angle_gamma   61.07436626
_symmetry_Int_Tables_number   1
_chemical_formula_structural   Cr
_chemical_formula_sum   Cr4
_cell_volume   140.84841874
_cell_formula_units_Z   4
loop_
 _symmetry_equiv_pos_site_id
 _symmetry_equiv_pos_as_xyz
  1  'x, y, z'
loop_
 _atom_site_type_symbol
 _atom_site_label
 _atom_site_symmetry_multiplicity
 _atom_site_fract_x
 _atom_site_fract_y
 _atom_site_fract_z
 _atom_site_occupancy
  Cr  Cr0  1  0.75501400  0.75501400  0.75501400  1.0
  Cr  Cr1  1  0.89461200  0.36902900  0.36902900  1.0
  Cr  Cr2  1  0.36902900  0.36902900  0.89461200  1.0
  Cr  Cr3  1  0.36902900  0.89461200  0.36902900  1.0
