# generated using pymatgen
data_Sm
_symmetry_space_group_name_H-M   'P 1'
_cell_length_a   9.52588627
_cell_length_b   9.52588627
_cell_length_c   9.52588627
_cell_angle_alpha   109.47122063
_cell_angle_beta   109.47122064
_cell_angle_gamma   109.47122064
_symmetry_Int_Tables_number   1
_chemical_formula_structural   Sm
_chemical_formula_sum   Sm16
_cell_volume   665.41760333
_cell_formula_units_Z   16
loop_
 _symmetry_equiv_pos_site_id
 _symmetry_equiv_pos_as_xyz
  1  'x, y, z'
loop_
 _atom_site_type_symbol
 _atom_site_label
 _atom_site_symmetry_multiplicity
 _atom_site_fract_x
 _atom_site_fract_y
 _atom_site_fract_z
 _atom_site_occupancy
  Sm  Sm0  1  0.50000000  0.50000000  0.00000000  1.0
  Sm  Sm1  1  0.50000000  0.00000000  0.50000000  1.0
  Sm  Sm2  1  0.00000000  0.00000000  0.00000000  1.0
  Sm  Sm3  1  1.00000000  0.50000000  0.50000000  1.0
  Sm  Sm4  1  0.03136300  0.78136300  0.25000000  1.0
  Sm  Sm5  1  0.25000000  0.46863700  0.21863700  1.0
  Sm  Sm6  1  0.71863700  0.25000000  0.96863700  1.0
  Sm  Sm7  1  0.75000000  0.03136300  0.28136300  1.0
  Sm  Sm8  1  0.78136300  0.75000000  0.53136300  1.0
  Sm  Sm9  1  0.46863700  0.71863700  0.75000000  1.0
  Sm  Sm10  1  0.96863700  0.21863700  0.75000000  1.0
  Sm  Sm11  1  0.75000000  0.53136300  0.78136300  1.0
  Sm  Sm12  1  0.28136300  0.75000000  0.03136300  1.0
  Sm  Sm13  1  0.25000000  0.96863700  0.71863700  1.0
  Sm  Sm14  1  0.21863700  0.25000000  0.46863700  1.0
  Sm  Sm15  1  0.53136300  0.28136300  0.25000000  1.0
