# generated using pymatgen
data_Fe
_symmetry_space_group_name_H-M   'P 1'
_cell_length_a   6.00846000
_cell_length_b   6.00845914
_cell_length_c   23.08408900
_cell_angle_alpha   90.00000000
_cell_angle_beta   90.00000000
_cell_angle_gamma   120.00000476
_symmetry_Int_Tables_number   1
_chemical_formula_structural   Fe
_chemical_formula_sum   Fe24
_cell_volume   721.72149097
_cell_formula_units_Z   24
loop_
 _symmetry_equiv_pos_site_id
 _symmetry_equiv_pos_as_xyz
  1  'x, y, z'
loop_
 _atom_site_type_symbol
 _atom_site_label
 _atom_site_symmetry_multiplicity
 _atom_site_fract_x
 _atom_site_fract_y
 _atom_site_fract_z
 _atom_site_occupancy
  Fe  Fe0  1  0.83253400  0.66506800  0.39059800  1.0
  Fe  Fe1  1  0.16746600  0.33493200  0.60940200  1.0
  Fe  Fe2  1  0.66666667  0.33333333  0.52814400  1.0
  Fe  Fe3  1  0.66666667  0.33333333  0.97185600  1.0
  Fe  Fe4  1  0.83253400  0.16746700  0.10940200  1.0
  Fe  Fe5  1  0.33333333  0.66666667  0.02814400  1.0
  Fe  Fe6  1  0.33333333  0.66666667  0.31005800  1.0
  Fe  Fe7  1  0.66666667  0.33333333  0.68994200  1.0
  Fe  Fe8  1  0.33493300  0.16746700  0.10940200  1.0
  Fe  Fe9  1  0.66506700  0.83253300  0.60940200  1.0
  Fe  Fe10  1  0.16746600  0.83253300  0.89059800  1.0
  Fe  Fe11  1  0.16746600  0.33493200  0.89059800  1.0
  Fe  Fe12  1  0.66666667  0.33333333  0.81005800  1.0
  Fe  Fe13  1  0.33493300  0.16746700  0.39059800  1.0
  Fe  Fe14  1  0.00000000  0.00000000  0.75000000  1.0
  Fe  Fe15  1  0.33333333  0.66666667  0.18994200  1.0
  Fe  Fe16  1  0.33333333  0.66666667  0.47185600  1.0
  Fe  Fe17  1  0.83253400  0.16746700  0.39059800  1.0
  Fe  Fe18  1  0.16746600  0.83253300  0.60940200  1.0
  Fe  Fe19  1  0.83253400  0.66506800  0.10940200  1.0
  Fe  Fe20  1  0.00000000  0.00000000  0.25000000  1.0
  Fe  Fe21  1  0.66506700  0.83253300  0.89059800  1.0
  Fe  Fe22  1  0.00000000  0.00000000  0.50000000  1.0
  Fe  Fe23  1  0.00000000  0.00000000  0.00000000  1.0
