# generated using pymatgen
data_Al2O3
_symmetry_space_group_name_H-M   'P 1'
_cell_length_a   2.89850315
_cell_length_b   2.89850341
_cell_length_c   51.89058957
_cell_angle_alpha   65.37566564
_cell_angle_beta   65.37566200
_cell_angle_gamma   60.03055475
_symmetry_Int_Tables_number   1
_chemical_formula_structural   Al2O3
_chemical_formula_sum   'Al10 O15'
_cell_volume   331.06052104
_cell_formula_units_Z   5
loop_
 _symmetry_equiv_pos_site_id
 _symmetry_equiv_pos_as_xyz
  1  'x, y, z'
loop_
 _atom_site_type_symbol
 _atom_site_label
 _atom_site_symmetry_multiplicity
 _atom_site_fract_x
 _atom_site_fract_y
 _atom_site_fract_z
 _atom_site_occupancy
  Al  Al0  1  0.79609187  0.79609187  0.24077705  1
  Al  Al1  1  0.21798191  0.21798191  0.35641031  1
  Al  Al2  1  0.70105290  0.70105290  0.52657291  1
  Al  Al3  1  0.58453656  0.58453656  0.61640558  1
  Al  Al4  1  0.61670453  0.61670453  0.67676356  1
  Al  Al5  1  0.54788116  0.54788116  0.75690297  1
  Al  Al6  1  0.47784641  0.47784641  0.83768652  1
  Al  Al7  1  0.51050648  0.51050648  0.89801318  1
  Al  Al8  1  0.39778225  0.39778225  0.99015545  1
  Al  Al9  1  0.40663801  0.40663801  0.05225077  1
  O  O10  1  0.87651016  0.87651016  0.02131190  1
  O  O11  1  0.00099327  0.00099327  0.06648909  1
  O  O12  1  0.96257760  0.96257760  0.14082031  1
  O  O13  1  0.98937288  0.98937288  0.20223364  1
  O  O14  1  0.05806356  0.05806356  0.25515159  1
  O  O15  1  0.02484982  0.02484982  0.39508187  1
  O  O16  1  0.95627144  0.95627144  0.34199455  1
  O  O17  1  0.88986285  0.88986285  0.48820712  1
  O  O18  1  0.95815609  0.95815609  0.54189773  1
  O  O19  1  0.98765756  0.98765756  0.60238917  1
  O  O20  1  0.20660769  0.20660769  0.69217469  1
  O  O21  1  0.09609119  0.09609119  0.64745628  1
  O  O22  1  0.99567161  0.99567161  0.86754504  1
  O  O23  1  0.88578420  0.88578420  0.82270494  1
  O  O24  1  0.10450600  0.10450600  0.91260575  1
