# generated using pymatgen
data_Nb
_symmetry_space_group_name_H-M   'P 1'
_cell_length_a   5.30627800
_cell_length_b   10.35914900
_cell_length_c   10.35914900
_cell_angle_alpha   90.00000000
_cell_angle_beta   90.00000000
_cell_angle_gamma   90.00000000
_symmetry_Int_Tables_number   1
_chemical_formula_structural   Nb
_chemical_formula_sum   Nb24
_cell_volume   569.42713496
_cell_formula_units_Z   24
loop_
 _symmetry_equiv_pos_site_id
 _symmetry_equiv_pos_as_xyz
  1  'x, y, z'
loop_
 _atom_site_type_symbol
 _atom_site_label
 _atom_site_symmetry_multiplicity
 _atom_site_fract_x
 _atom_site_fract_y
 _atom_site_fract_z
 _atom_site_occupancy
  Nb  Nb0  1  0.53585900  0.91672000  0.59727900  1.0
  Nb  Nb1  1  0.53585900  0.08328000  0.40272100  1.0
  Nb  Nb2  1  0.03585900  0.90272100  0.41672000  1.0
  Nb  Nb3  1  0.03585900  0.09727900  0.58328000  1.0
  Nb  Nb4  1  0.96414100  0.58328000  0.90272100  1.0
  Nb  Nb5  1  0.96414100  0.41672000  0.09727900  1.0
  Nb  Nb6  1  0.46414100  0.59727900  0.08328000  1.0
  Nb  Nb7  1  0.46414100  0.40272100  0.91672000  1.0
  Nb  Nb8  1  0.72078100  0.85118000  0.97837800  1.0
  Nb  Nb9  1  0.72078100  0.14882000  0.02162200  1.0
  Nb  Nb10  1  0.22078100  0.52162200  0.35118000  1.0
  Nb  Nb11  1  0.22078100  0.47837800  0.64882000  1.0
  Nb  Nb12  1  0.77921900  0.64882000  0.52162200  1.0
  Nb  Nb13  1  0.77921900  0.35118000  0.47837800  1.0
  Nb  Nb14  1  0.27921900  0.97837800  0.14882000  1.0
  Nb  Nb15  1  0.27921900  0.02162200  0.85118000  1.0
  Nb  Nb16  1  0.01420800  0.81390900  0.71411300  1.0
  Nb  Nb17  1  0.01420800  0.18609100  0.28588700  1.0
  Nb  Nb18  1  0.51420800  0.78588700  0.31390900  1.0
  Nb  Nb19  1  0.51420800  0.21411300  0.68609100  1.0
  Nb  Nb20  1  0.48579200  0.68609100  0.78588700  1.0
  Nb  Nb21  1  0.48579200  0.31390900  0.21411300  1.0
  Nb  Nb22  1  0.98579200  0.71411300  0.18609100  1.0
  Nb  Nb23  1  0.98579200  0.28588700  0.81390900  1.0
