# generated using pymatgen
data_Os
_symmetry_space_group_name_H-M   'P 1'
_cell_length_a   5.68626100
_cell_length_b   6.52279870
_cell_length_c   7.35605874
_cell_angle_alpha   65.48243867
_cell_angle_beta   70.50012282
_cell_angle_gamma   75.77238739
_symmetry_Int_Tables_number   1
_chemical_formula_structural   Os
_chemical_formula_sum   Os4
_cell_volume   232.16256991
_cell_formula_units_Z   4
loop_
 _symmetry_equiv_pos_site_id
 _symmetry_equiv_pos_as_xyz
  1  'x, y, z'
loop_
 _atom_site_type_symbol
 _atom_site_label
 _atom_site_symmetry_multiplicity
 _atom_site_fract_x
 _atom_site_fract_y
 _atom_site_fract_z
 _atom_site_occupancy
  Os  Os0  1  0.81546500  0.64251800  0.54670100  1.0
  Os  Os1  1  0.18453500  0.35748200  0.45329900  1.0
  Os  Os2  1  0.36656500  0.91246000  0.23668800  1.0
  Os  Os3  1  0.63343500  0.08754000  0.76331200  1.0
