# generated using pymatgen
data_CeV
_symmetry_space_group_name_H-M   'P 1'
_cell_length_a   6.73294600
_cell_length_b   7.25672600
_cell_length_c   7.10524552
_cell_angle_alpha   90.00000000
_cell_angle_beta   105.84513398
_cell_angle_gamma   90.00000000
_symmetry_Int_Tables_number   1
_chemical_formula_structural   CeV
_chemical_formula_sum   'Ce4 V4'
_cell_volume   333.96539443
_cell_formula_units_Z   4
loop_
 _symmetry_equiv_pos_site_id
 _symmetry_equiv_pos_as_xyz
  1  'x, y, z'
loop_
 _atom_site_type_symbol
 _atom_site_label
 _atom_site_symmetry_multiplicity
 _atom_site_fract_x
 _atom_site_fract_y
 _atom_site_fract_z
 _atom_site_occupancy
  Ce  Ce0  1  0.40218400  0.65329900  0.21663600  1.0
  Ce  Ce1  1  0.90218400  0.84670100  0.71663600  1.0
  Ce  Ce2  1  0.59781600  0.34670100  0.78336400  1.0
  Ce  Ce3  1  0.09781600  0.15329900  0.28336400  1.0
  V  V4  1  0.88951900  0.66339100  0.19925500  1.0
  V  V5  1  0.38951900  0.83660900  0.69925500  1.0
  V  V6  1  0.11048100  0.33660900  0.80074500  1.0
  V  V7  1  0.61048100  0.16339100  0.30074500  1.0
