# generated using pymatgen
data_Cu
_symmetry_space_group_name_H-M   'P 1'
_cell_length_a   2.88433400
_cell_length_b   5.73093800
_cell_length_c   12.58707300
_cell_angle_alpha   90.00000000
_cell_angle_beta   90.00000000
_cell_angle_gamma   90.00000000
_symmetry_Int_Tables_number   1
_chemical_formula_structural   Cu
_chemical_formula_sum   Cu8
_cell_volume   208.06355297
_cell_formula_units_Z   8
loop_
 _symmetry_equiv_pos_site_id
 _symmetry_equiv_pos_as_xyz
  1  'x, y, z'
loop_
 _atom_site_type_symbol
 _atom_site_label
 _atom_site_symmetry_multiplicity
 _atom_site_fract_x
 _atom_site_fract_y
 _atom_site_fract_z
 _atom_site_occupancy
  Cu  Cu0  1  0.25000000  0.12382800  0.10019800  1.0
  Cu  Cu1  1  0.25000000  0.62382800  0.39980200  1.0
  Cu  Cu2  1  0.75000000  0.37617200  0.60019800  1.0
  Cu  Cu3  1  0.25000000  0.12049400  0.74239700  1.0
  Cu  Cu4  1  0.75000000  0.87950600  0.25760300  1.0
  Cu  Cu5  1  0.25000000  0.62049400  0.75760300  1.0
  Cu  Cu6  1  0.75000000  0.37950600  0.24239700  1.0
  Cu  Cu7  1  0.75000000  0.87617200  0.89980200  1.0
