# generated using pymatgen
data_Mn
_symmetry_space_group_name_H-M   'P 1'
_cell_length_a   5.52551600
_cell_length_b   5.52551667
_cell_length_c   9.29245000
_cell_angle_alpha   90.00000000
_cell_angle_beta   90.00000000
_cell_angle_gamma   119.99999598
_symmetry_Int_Tables_number   1
_chemical_formula_structural   Mn
_chemical_formula_sum   Mn4
_cell_volume   245.70082596
_cell_formula_units_Z   4
loop_
 _symmetry_equiv_pos_site_id
 _symmetry_equiv_pos_as_xyz
  1  'x, y, z'
loop_
 _atom_site_type_symbol
 _atom_site_label
 _atom_site_symmetry_multiplicity
 _atom_site_fract_x
 _atom_site_fract_y
 _atom_site_fract_z
 _atom_site_occupancy
  Mn  Mn0  1  0.66666667  0.33333333  0.11288000  1.0
  Mn  Mn1  1  0.33333333  0.66666667  0.88702200  1.0
  Mn  Mn2  1  0.33333333  0.66666667  0.61288000  1.0
  Mn  Mn3  1  0.66666667  0.33333333  0.38702200  1.0
