# generated using pymatgen
data_Mn
_symmetry_space_group_name_H-M   'P 1'
_cell_length_a   5.56853100
_cell_length_b   9.39399800
_cell_length_c   19.58038900
_cell_angle_alpha   90.00000000
_cell_angle_beta   90.00000000
_cell_angle_gamma   90.00000000
_symmetry_Int_Tables_number   1
_chemical_formula_structural   Mn
_chemical_formula_sum   Mn16
_cell_volume   1024.26520742
_cell_formula_units_Z   16
loop_
 _symmetry_equiv_pos_site_id
 _symmetry_equiv_pos_as_xyz
  1  'x, y, z'
loop_
 _atom_site_type_symbol
 _atom_site_label
 _atom_site_symmetry_multiplicity
 _atom_site_fract_x
 _atom_site_fract_y
 _atom_site_fract_z
 _atom_site_occupancy
  Mn  Mn0  1  0.85933900  0.65400000  0.62363900  1.0
  Mn  Mn1  1  0.14066100  0.84600000  0.12363900  1.0
  Mn  Mn2  1  0.64066100  0.15400000  0.37636100  1.0
  Mn  Mn3  1  0.35933900  0.34600000  0.87636100  1.0
  Mn  Mn4  1  0.14066100  0.34600000  0.37636100  1.0
  Mn  Mn5  1  0.85933900  0.15400000  0.87636100  1.0
  Mn  Mn6  1  0.35933900  0.84600000  0.62363900  1.0
  Mn  Mn7  1  0.64066100  0.65400000  0.12363900  1.0
  Mn  Mn8  1  0.85073000  0.51842000  0.87744900  1.0
  Mn  Mn9  1  0.14927000  0.98158000  0.37744900  1.0
  Mn  Mn10  1  0.64927000  0.01842000  0.12255100  1.0
  Mn  Mn11  1  0.35073000  0.48158000  0.62255100  1.0
  Mn  Mn12  1  0.14927000  0.48158000  0.12255100  1.0
  Mn  Mn13  1  0.85073000  0.01842000  0.62255100  1.0
  Mn  Mn14  1  0.35073000  0.98158000  0.87744900  1.0
  Mn  Mn15  1  0.64927000  0.51842000  0.37744900  1.0
