# generated using pymatgen
data_Mn
_symmetry_space_group_name_H-M   'P 1'
_cell_length_a   5.34844785
_cell_length_b   6.89381344
_cell_length_c   6.89380672
_cell_angle_alpha   86.19972393
_cell_angle_beta   81.32925991
_cell_angle_gamma   81.32922833
_symmetry_Int_Tables_number   1
_chemical_formula_structural   Mn
_chemical_formula_sum   Mn4
_cell_volume   248.15922283
_cell_formula_units_Z   4
loop_
 _symmetry_equiv_pos_site_id
 _symmetry_equiv_pos_as_xyz
  1  'x, y, z'
loop_
 _atom_site_type_symbol
 _atom_site_label
 _atom_site_symmetry_multiplicity
 _atom_site_fract_x
 _atom_site_fract_y
 _atom_site_fract_z
 _atom_site_occupancy
  Mn  Mn0  1  0.24999300  0.90299000  0.09701100  1.0
  Mn  Mn1  1  0.25000000  0.27538700  0.72461100  1.0
  Mn  Mn2  1  0.74999700  0.09680900  0.90318500  1.0
  Mn  Mn3  1  0.75000000  0.72471400  0.27529000  1.0
