# generated using pymatgen
data_Mn
_symmetry_space_group_name_H-M   'P 1'
_cell_length_a   3.87973501
_cell_length_b   3.98353451
_cell_length_c   10.42711611
_cell_angle_alpha   101.00712116
_cell_angle_beta   100.72073059
_cell_angle_gamma   90.00626049
_symmetry_Int_Tables_number   1
_chemical_formula_structural   Mn
_chemical_formula_sum   Mn2
_cell_volume   155.31991129
_cell_formula_units_Z   2
loop_
 _symmetry_equiv_pos_site_id
 _symmetry_equiv_pos_as_xyz
  1  'x, y, z'
loop_
 _atom_site_type_symbol
 _atom_site_label
 _atom_site_symmetry_multiplicity
 _atom_site_fract_x
 _atom_site_fract_y
 _atom_site_fract_z
 _atom_site_occupancy
  Mn  Mn0  1  0.09824750  0.09813950  0.19643850  1.0
  Mn  Mn1  1  0.90193200  0.90188000  0.80353150  1.0
