# generated using pymatgen
data_Mn
_symmetry_space_group_name_H-M   'P 1'
_cell_length_a   3.84696351
_cell_length_b   3.92595300
_cell_length_c   10.66699640
_cell_angle_alpha   79.39665785
_cell_angle_beta   79.61528597
_cell_angle_gamma   89.99896076
_symmetry_Int_Tables_number   1
_chemical_formula_structural   Mn
_chemical_formula_sum   Mn2
_cell_volume   155.66724859
_cell_formula_units_Z   2
loop_
 _symmetry_equiv_pos_site_id
 _symmetry_equiv_pos_as_xyz
  1  'x, y, z'
loop_
 _atom_site_type_symbol
 _atom_site_label
 _atom_site_symmetry_multiplicity
 _atom_site_fract_x
 _atom_site_fract_y
 _atom_site_fract_z
 _atom_site_occupancy
  Mn  Mn0  1  0.09774700  0.09780600  0.80436450  1.0
  Mn  Mn1  1  0.90427700  0.90419500  0.19160700  1.0
