# generated using pymatgen
data_Mn
_symmetry_space_group_name_H-M   'P 1'
_cell_length_a   3.93659650
_cell_length_b   3.93657350
_cell_length_c   10.39757271
_cell_angle_alpha   100.91067636
_cell_angle_beta   100.91071260
_cell_angle_gamma   90.00342035
_symmetry_Int_Tables_number   1
_chemical_formula_structural   Mn
_chemical_formula_sum   Mn2
_cell_volume   155.24779164
_cell_formula_units_Z   2
loop_
 _symmetry_equiv_pos_site_id
 _symmetry_equiv_pos_as_xyz
  1  'x, y, z'
loop_
 _atom_site_type_symbol
 _atom_site_label
 _atom_site_symmetry_multiplicity
 _atom_site_fract_x
 _atom_site_fract_y
 _atom_site_fract_z
 _atom_site_occupancy
  Mn  Mn0  1  0.09813200  0.09812900  0.19628150  1.0
  Mn  Mn1  1  0.90187200  0.90187100  0.80372000  1.0
