# generated using pymatgen
data_Cr2Cu
_symmetry_space_group_name_H-M   'P 1'
_cell_length_a   5.89023700
_cell_length_b   6.82454300
_cell_length_c   12.03672700
_cell_angle_alpha   90.00000000
_cell_angle_beta   90.00000000
_cell_angle_gamma   90.00000000
_symmetry_Int_Tables_number   1
_chemical_formula_structural   Cr2Cu
_chemical_formula_sum   'Cr8 Cu4'
_cell_volume   483.85446664
_cell_formula_units_Z   4
loop_
 _symmetry_equiv_pos_site_id
 _symmetry_equiv_pos_as_xyz
  1  'x, y, z'
loop_
 _atom_site_type_symbol
 _atom_site_label
 _atom_site_symmetry_multiplicity
 _atom_site_fract_x
 _atom_site_fract_y
 _atom_site_fract_z
 _atom_site_occupancy
  Cr  Cr0  1  0.98740700  0.00000000  0.24392800  1.0
  Cr  Cr1  1  0.98740700  0.00000000  0.75607200  1.0
  Cr  Cr2  1  0.01259300  0.50000000  0.25607200  1.0
  Cr  Cr3  1  0.01259300  0.50000000  0.74392800  1.0
  Cr  Cr4  1  0.50000000  0.25000000  0.25000000  1.0
  Cr  Cr5  1  0.50000000  0.75000000  0.75000000  1.0
  Cr  Cr6  1  0.50000000  0.75000000  0.25000000  1.0
  Cr  Cr7  1  0.50000000  0.25000000  0.75000000  1.0
  Cu  Cu8  1  0.35654600  0.00000000  0.00000000  1.0
  Cu  Cu9  1  0.64345400  0.50000000  0.50000000  1.0
  Cu  Cu10  1  0.03720500  0.00000000  0.50000000  1.0
  Cu  Cu11  1  0.96279500  0.50000000  0.00000000  1.0
