# generated using pymatgen
data_Ta
_symmetry_space_group_name_H-M   'P 1'
_cell_length_a   5.20829022
_cell_length_b   5.20829022
_cell_length_c   5.53381893
_cell_angle_alpha   61.92757006
_cell_angle_beta   61.92757006
_cell_angle_gamma   59.99999714
_symmetry_Int_Tables_number   1
_chemical_formula_structural   Ta
_chemical_formula_sum   Ta2
_cell_volume   109.13330688
_cell_formula_units_Z   2
loop_
 _symmetry_equiv_pos_site_id
 _symmetry_equiv_pos_as_xyz
  1  'x, y, z'
loop_
 _atom_site_type_symbol
 _atom_site_label
 _atom_site_symmetry_multiplicity
 _atom_site_fract_x
 _atom_site_fract_y
 _atom_site_fract_z
 _atom_site_occupancy
  Ta  Ta0  1  0.99944700  0.99944700  0.00165900  1.0
  Ta  Ta1  1  0.49944700  0.49944700  0.50165900  1.0
