# generated using pymatgen
data_CoO2
_symmetry_space_group_name_H-M   'P 1'
_cell_length_a   10.34004735
_cell_length_b   11.11235024
_cell_length_c   10.51729425
_cell_angle_alpha   88.20027767
_cell_angle_beta   97.38570876
_cell_angle_gamma   87.23914848
_symmetry_Int_Tables_number   1
_chemical_formula_structural   CoO2
_chemical_formula_sum   'Co30 O60'
_cell_volume   1196.18061466
_cell_formula_units_Z   30
loop_
 _symmetry_equiv_pos_site_id
 _symmetry_equiv_pos_as_xyz
  1  'x, y, z'
loop_
 _atom_site_type_symbol
 _atom_site_label
 _atom_site_symmetry_multiplicity
 _atom_site_fract_x
 _atom_site_fract_y
 _atom_site_fract_z
 _atom_site_occupancy
  Co  Co0  1  0.03823131  0.89477063  0.59604925  1
  Co  Co1  1  0.43651121  0.17346590  0.27284995  1
  Co  Co2  1  0.96077134  0.57930690  0.42524715  1
  Co  Co3  1  0.67595978  0.10361248  0.21743865  1
  Co  Co4  1  0.61948707  0.64879390  0.15782086  1
  Co  Co5  1  0.47853459  0.10325408  0.94844939  1
  Co  Co6  1  0.73772005  0.90054050  0.71316619  1
  Co  Co7  1  0.02185016  0.09176615  0.19568769  1
  Co  Co8  1  0.75501506  0.50756799  0.86985137  1
  Co  Co9  1  0.22228999  0.45144849  0.60513921  1
  Co  Co10  1  0.99015762  0.32690113  0.77809196  1
  Co  Co11  1  0.97342221  0.75538893  0.84930519  1
  Co  Co12  1  0.79883708  0.18734929  0.93192663  1
  Co  Co13  1  0.13444287  0.50663602  0.91399108  1
  Co  Co14  1  0.13057111  0.30951823  0.12580860  1
  Co  Co15  1  0.25636822  0.02101782  0.10743438  1
  Co  Co16  1  0.61148859  0.01792860  0.49465793  1
  Co  Co17  1  0.54632087  0.76233528  0.42909329  1
  Co  Co18  1  0.43559060  0.38641766  0.09563779  1
  Co  Co19  1  0.80261781  0.43336859  0.56563325  1
  Co  Co20  1  0.45828110  0.19656308  0.63548521  1
  Co  Co21  1  0.66980542  0.72264476  0.92637428  1
  Co  Co22  1  0.37048211  0.40627029  0.83380104  1
  Co  Co23  1  0.27586350  0.70252599  0.75501813  1
  Co  Co24  1  0.25331211  0.90976801  0.35973019  1
  Co  Co25  1  0.94876711  0.69341190  0.12466697  1
  Co  Co26  1  0.99563763  0.29911125  0.42607056  1
  Co  Co27  1  0.80330921  0.83887536  0.33756583  1
  Co  Co28  1  0.71300439  0.38376617  0.24628346  1
  Co  Co29  1  0.32642610  0.94756744  0.78577612  1
  O  O30  1  0.60393532  0.62726362  0.55060622  1
  O  O31  1  0.17385793  0.88209909  0.73236419  1
  O  O32  1  0.77806775  0.63723652  0.08017171  1
  O  O33  1  0.76992494  0.99447880  0.12393513  1
  O  O34  1  0.93660322  0.32218560  0.59660263  1
  O  O35  1  0.83180306  0.14168131  0.32295362  1
  O  O36  1  0.63466574  0.13695271  0.92781465  1
  O  O37  1  0.48558412  0.13671029  0.46539601  1
  O  O38  1  0.59603049  0.58211478  0.88063243  1
  O  O39  1  0.12395614  0.14841020  0.07500483  1
  O  O40  1  0.92728620  0.05146069  0.32152927  1
  O  O41  1  0.32812097  0.04486243  0.28159188  1
  O  O42  1  0.89636991  0.87899910  0.47641382  1
  O  O43  1  0.38084297  0.78576158  0.36782294  1
  O  O44  1  0.43008167  0.07518842  0.76304250  1
  O  O45  1  0.93069846  0.19431073  0.82656844  1
  O  O46  1  0.87692679  0.57699077  0.56342759  1
  O  O47  1  0.56571872  0.48902594  0.17552386  1
  O  O48  1  0.12934243  0.66286464  0.84799133  1
  O  O49  1  0.06628784  0.36620766  0.95783127  1
  O  O50  1  0.32578355  0.48955784  0.97438792  1
  O  O51  1  0.93763409  0.70394169  0.29872165  1
  O  O52  1  0.68505039  0.87643700  0.86510501  1
  O  O53  1  0.09928429  0.44958610  0.46624261  1
  O  O54  1  0.43053621  0.28590359  0.95046544  1
  O  O55  1  0.50563697  0.08318736  0.13109977  1
  O  O56  1  0.55642506  0.76471673  0.03542024  1
  O  O57  1  0.63366206  0.52533712  0.50197767  1
  O  O58  1  0.92094135  0.87299548  0.71931299  1
  O  O59  1  0.60102067  0.25347718  0.25454959  1
  O  O60  1  0.32789601  0.01171326  0.95847249  1
  O  O61  1  0.61284973  0.86577258  0.56063184  1
  O  O62  1  0.41149739  0.79454272  0.77469877  1
  O  O63  1  0.60946182  0.30435119  0.65325318  1
  O  O64  1  0.07780366  0.13930319  0.51861140  1
  O  O65  1  0.76625328  0.35841304  0.98405688  1
  O  O66  1  0.19443590  0.66229618  0.57606519  1
  O  O67  1  0.86644636  0.06046123  0.07501671  1
  O  O68  1  0.81490478  0.36901502  0.11487906  1
  O  O69  1  0.05208638  0.24569324  0.26410448  1
  O  O70  1  0.67578334  0.30849389  0.55567173  1
  O  O71  1  0.35175190  0.51615290  0.36349192  1
  O  O72  1  0.15989362  0.91672216  0.48320552  1
  O  O73  1  0.07340977  0.70492098  0.54543050  1
  O  O74  1  0.09499418  0.47010348  0.17883265  1
  O  O75  1  0.66639222  0.72520939  0.31529069  1
  O  O76  1  0.83322406  0.42074928  0.38550395  1
  O  O77  1  0.00601654  0.08053688  0.58634505  1
  O  O78  1  0.81779524  0.67067289  0.84227404  1
  O  O79  1  0.69273226  0.06134517  0.64111491  1
  O  O80  1  0.10817023  0.43896874  0.74835412  1
  O  O81  1  0.33914591  0.53893751  0.72502048  1
  O  O82  1  0.33533221  0.31913171  0.68261000  1
  O  O83  1  0.08811539  0.55989774  0.08823325  1
  O  O84  1  0.32645507  0.30072260  0.19657140  1
  O  O85  1  0.66011170  0.97266795  0.34354373  1
  O  O86  1  0.36789761  0.44550436  0.45780102  1
  O  O87  1  0.00258261  0.80061333  0.01899578  1
  O  O88  1  0.13034687  0.94617607  0.20102118  1
  O  O89  1  0.81930645  0.42999054  0.74442324  1
