# generated using pymatgen
data_CoO2
_symmetry_space_group_name_H-M   'P 1'
_cell_length_a   9.80269504
_cell_length_b   10.68183868
_cell_length_c   10.70738481
_cell_angle_alpha   94.91276385
_cell_angle_beta   93.49747654
_cell_angle_gamma   87.36653786
_symmetry_Int_Tables_number   1
_chemical_formula_structural   CoO2
_chemical_formula_sum   'Co30 O60'
_cell_volume   1114.04424914
_cell_formula_units_Z   30
loop_
 _symmetry_equiv_pos_site_id
 _symmetry_equiv_pos_as_xyz
  1  'x, y, z'
loop_
 _atom_site_type_symbol
 _atom_site_label
 _atom_site_symmetry_multiplicity
 _atom_site_fract_x
 _atom_site_fract_y
 _atom_site_fract_z
 _atom_site_occupancy
  Co  Co0  1  0.23098013  0.24894772  0.48800882  1
  Co  Co1  1  0.51371932  0.16414404  0.56218181  1
  Co  Co2  1  0.06298706  0.80954558  0.56101272  1
  Co  Co3  1  0.36453816  0.95015561  0.54909731  1
  Co  Co4  1  0.50078151  0.66376789  0.32778496  1
  Co  Co5  1  0.48479245  0.27473392  0.23276863  1
  Co  Co6  1  0.81908121  0.24338539  0.72028641  1
  Co  Co7  1  0.75396420  0.07484424  0.17182841  1
  Co  Co8  1  0.26593324  0.40887479  0.98584481  1
  Co  Co9  1  0.09222341  0.80092256  0.26256791  1
  Co  Co10  1  0.02273831  0.02848061  0.43536142  1
  Co  Co11  1  0.94006517  0.52243629  0.90052982  1
  Co  Co12  1  0.84147787  0.03908159  0.86184784  1
  Co  Co13  1  0.23579425  0.35301260  0.72032842  1
  Co  Co14  1  0.20292956  0.09142912  0.73795232  1
  Co  Co15  1  0.16537363  0.65432158  0.80042997  1
  Co  Co16  1  0.48220791  0.71693943  0.74779132  1
  Co  Co17  1  0.30593943  0.98303878  0.18613234  1
  Co  Co18  1  0.51117576  0.42554269  0.53397079  1
  Co  Co19  1  0.97252238  0.44326727  0.63296700  1
  Co  Co20  1  0.59013699  0.27891129  0.87295964  1
  Co  Co21  1  0.32623908  0.74757580  0.03612935  1
  Co  Co22  1  0.55561804  0.56496919  0.05218149  1
  Co  Co23  1  0.28128698  0.57447362  0.53411113  1
  Co  Co24  1  0.72984753  0.92823964  0.39507005  1
  Co  Co25  1  0.76127516  0.69562285  0.21434007  1
  Co  Co26  1  0.89168703  0.25521632  0.40146225  1
  Co  Co27  1  0.61708694  0.88221949  0.03055421  1
  Co  Co28  1  0.76651189  0.38721827  0.18439206  1
  Co  Co29  1  0.43125055  0.00388879  0.87232206  1
  O  O30  1  0.77302457  0.67367535  0.83552458  1
  O  O31  1  0.16197144  0.97135491  0.57692598  1
  O  O32  1  0.32767029  0.72320889  0.86492606  1
  O  O33  1  0.67583762  0.74798498  0.35964380  1
  O  O34  1  0.85740015  0.08400582  0.33579166  1
  O  O35  1  0.92006125  0.90792798  0.48429367  1
  O  O36  1  0.50436012  0.15032690  0.92851159  1
  O  O37  1  0.14971212  0.21411091  0.64027644  1
  O  O38  1  0.59112826  0.44164181  0.93124972  1
  O  O39  1  0.91437966  0.87188943  0.82409597  1
  O  O40  1  0.66787111  0.93683173  0.20992894  1
  O  O41  1  0.37766493  0.12430554  0.20825186  1
  O  O42  1  0.07661770  0.18578031  0.40686703  1
  O  O43  1  0.43409988  0.89768564  0.29854407  1
  O  O44  1  0.40096360  0.05894812  0.69607485  1
  O  O45  1  0.62326814  0.26458300  0.68626699  1
  O  O46  1  0.14561423  0.96008712  0.30992940  1
  O  O47  1  0.43399328  0.65608646  0.14796231  1
  O  O48  1  0.19066371  0.69324351  0.63375007  1
  O  O49  1  0.15669970  0.43063873  0.56413697  1
  O  O50  1  0.62440810  0.04533742  0.50946438  1
  O  O51  1  0.19153386  0.59939692  0.04986821  1
  O  O52  1  0.41985686  0.91777942  0.04824428  1
  O  O53  1  0.02675671  0.84993508  0.76316902  1
  O  O54  1  0.25060291  0.25959602  0.85093547  1
  O  O55  1  0.38401294  0.83509386  0.38597846  1
  O  O56  1  0.12785932  0.12864205  0.07558959  1
  O  O57  1  0.38531991  0.30209286  0.58788613  1
  O  O58  1  0.67677330  0.63512430  0.76091150  1
  O  O59  1  0.85977319  0.67438591  0.53816313  1
  O  O60  1  0.91164622  0.09520235  0.72277467  1
  O  O61  1  0.40518051  0.54519960  0.41348904  1
  O  O62  1  0.08955045  0.64048918  0.96529593  1
  O  O63  1  0.35543950  0.09944509  0.46416605  1
  O  O64  1  0.19986956  0.84671762  0.12922136  1
  O  O65  1  0.67459249  0.24048309  0.16580283  1
  O  O66  1  0.45412902  0.55342504  0.64888900  1
  O  O67  1  0.76223298  0.99702174  0.00742518  1
  O  O68  1  0.77769247  0.20846155  0.88251461  1
  O  O69  1  0.88557090  0.39394046  0.31660232  1
  O  O70  1  0.56040731  0.31113568  0.41020893  1
  O  O71  1  0.84911456  0.55724234  0.52875928  1
  O  O72  1  0.00908369  0.09343077  0.06691321  1
  O  O73  1  0.12176555  0.72825776  0.40141549  1
  O  O74  1  0.18574558  0.38133437  0.28140085  1
  O  O75  1  0.55704976  0.86374250  0.86018951  1
  O  O76  1  0.65333919  0.53432661  0.20709503  1
  O  O77  1  0.28213958  0.31931049  0.33358331  1
  O  O78  1  0.87100215  0.40718485  0.76656537  1
  O  O79  1  0.66954828  0.71293408  0.05246374  1
  O  O80  1  0.00898401  0.58125416  0.74739486  1
  O  O81  1  0.06681756  0.37240291  0.98905396  1
  O  O82  1  0.38565066  0.37401185  0.10455952  1
  O  O83  1  0.01081601  0.41168863  0.10133819  1
  O  O84  1  0.22882168  0.99498889  0.85588985  1
  O  O85  1  0.44116996  0.82003476  0.61411677  1
  O  O86  1  0.88324897  0.47626509  0.07009928  1
  O  O87  1  0.25862658  0.48747841  0.83173007  1
  O  O88  1  0.93238585  0.74681832  0.19811706  1
  O  O89  1  0.87535594  0.29733985  0.56485930  1
