# generated using pymatgen
data_Ir
_symmetry_space_group_name_H-M   'P 1'
_cell_length_a   5.82307200
_cell_length_b   5.87314355
_cell_length_c   15.19914997
_cell_angle_alpha   79.03906216
_cell_angle_beta   78.95621254
_cell_angle_gamma   60.28162315
_symmetry_Int_Tables_number   1
_chemical_formula_structural   Ir
_chemical_formula_sum   Ir6
_cell_volume   440.30717934
_cell_formula_units_Z   6
loop_
 _symmetry_equiv_pos_site_id
 _symmetry_equiv_pos_as_xyz
  1  'x, y, z'
loop_
 _atom_site_type_symbol
 _atom_site_label
 _atom_site_symmetry_multiplicity
 _atom_site_fract_x
 _atom_site_fract_y
 _atom_site_fract_z
 _atom_site_occupancy
  Ir  Ir0  1  0.91285100  0.99800000  0.17629800  1.0
  Ir  Ir1  1  0.08714900  0.00200000  0.82370200  1.0
  Ir  Ir2  1  0.00000000  0.00000000  0.00000000  1.0
  Ir  Ir3  1  0.52965400  0.61576800  0.32492400  1.0
  Ir  Ir4  1  0.47034600  0.38423200  0.67507600  1.0
  Ir  Ir5  1  0.50000000  0.50000000  0.50000000  1.0
