# generated using pymatgen
data_Hf
_symmetry_space_group_name_H-M   'P 1'
_cell_length_a   10.55164968
_cell_length_b   11.21030415
_cell_length_c   11.36529556
_cell_angle_alpha   92.22726916
_cell_angle_beta   90.36951199
_cell_angle_gamma   90.99973545
_symmetry_Int_Tables_number   1
_chemical_formula_structural   Hf
_chemical_formula_sum   Hf34
_cell_volume   1343.11471987
_cell_formula_units_Z   34
loop_
 _symmetry_equiv_pos_site_id
 _symmetry_equiv_pos_as_xyz
  1  'x, y, z'
loop_
 _atom_site_type_symbol
 _atom_site_label
 _atom_site_symmetry_multiplicity
 _atom_site_fract_x
 _atom_site_fract_y
 _atom_site_fract_z
 _atom_site_occupancy
  Hf  Hf0  1  0.33019873  0.83823310  0.52106919  1.0
  Hf  Hf1  1  0.65836204  0.13954494  0.51718947  1.0
  Hf  Hf2  1  0.35610678  0.46221045  0.82526311  1.0
  Hf  Hf3  1  0.85324339  0.40191117  0.48983844  1.0
  Hf  Hf4  1  0.47020639  0.04704339  0.03202280  1.0
  Hf  Hf5  1  0.38861886  0.58009402  0.58331252  1.0
  Hf  Hf6  1  0.35353554  0.76704126  0.88385585  1.0
  Hf  Hf7  1  0.65661002  0.95508872  0.75702076  1.0
  Hf  Hf8  1  0.03681829  0.92584523  0.27907711  1.0
  Hf  Hf9  1  0.02418908  0.70611217  0.47614173  1.0
  Hf  Hf10  1  0.21594601  0.23571747  0.90979952  1.0
  Hf  Hf11  1  0.87672889  0.45336641  0.84833838  1.0
  Hf  Hf12  1  0.13335917  0.13925180  0.54050509  1.0
  Hf  Hf13  1  0.61912394  0.57328929  0.29873226  1.0
  Hf  Hf14  1  0.94513502  0.44350373  0.16281194  1.0
  Hf  Hf15  1  0.66046451  0.21036087  0.24706139  1.0
  Hf  Hf16  1  0.82561904  0.00242627  0.06635489  1.0
  Hf  Hf17  1  0.27545793  0.51947386  0.33290122  1.0
  Hf  Hf18  1  0.89382329  0.15492472  0.79078251  1.0
  Hf  Hf19  1  0.61726454  0.35529339  0.73415824  1.0
  Hf  Hf20  1  0.39947619  0.10476599  0.71523416  1.0
  Hf  Hf21  1  0.31496786  0.83213581  0.23404186  1.0
  Hf  Hf22  1  0.39140434  0.29992470  0.49448328  1.0
  Hf  Hf23  1  0.62629347  0.64385432  0.84638679  1.0
  Hf  Hf24  1  0.14499773  0.92752948  0.72159722  1.0
  Hf  Hf25  1  0.15095713  0.97827897  0.00018952  1.0
  Hf  Hf26  1  0.44086788  0.37759989  0.12748086  1.0
  Hf  Hf27  1  0.69610941  0.68951033  0.55677961  1.0
  Hf  Hf28  1  0.09848794  0.43373651  0.65674323  1.0
  Hf  Hf29  1  0.21152375  0.58998046  0.08620308  1.0
  Hf  Hf30  1  0.27329610  0.17072780  0.23445587  1.0
  Hf  Hf31  1  0.95605149  0.20774344  0.31281173  1.0
  Hf  Hf32  1  0.60950531  0.86799308  0.27923809  1.0
  Hf  Hf33  1  0.86171835  0.70491069  0.09980566  1.0
