# generated using pymatgen
data_Hf
_symmetry_space_group_name_H-M   'P 1'
_cell_length_a   5.08568300
_cell_length_b   5.24835500
_cell_length_c   10.05880800
_cell_angle_alpha   90.00000000
_cell_angle_beta   90.00000000
_cell_angle_gamma   90.00000000
_symmetry_Int_Tables_number   1
_chemical_formula_structural   Hf
_chemical_formula_sum   Hf8
_cell_volume   268.48436997
_cell_formula_units_Z   8
loop_
 _symmetry_equiv_pos_site_id
 _symmetry_equiv_pos_as_xyz
  1  'x, y, z'
loop_
 _atom_site_type_symbol
 _atom_site_label
 _atom_site_symmetry_multiplicity
 _atom_site_fract_x
 _atom_site_fract_y
 _atom_site_fract_z
 _atom_site_occupancy
  Hf  Hf0  1  0.75404600  0.46427700  0.11556800  1.0
  Hf  Hf1  1  0.25404600  0.53572300  0.38443200  1.0
  Hf  Hf2  1  0.74595400  0.96427700  0.88443200  1.0
  Hf  Hf3  1  0.24595400  0.03572300  0.61556800  1.0
  Hf  Hf4  1  0.24595400  0.53572300  0.88443200  1.0
  Hf  Hf5  1  0.74595400  0.46427700  0.61556800  1.0
  Hf  Hf6  1  0.25404600  0.03572300  0.11556800  1.0
  Hf  Hf7  1  0.75404600  0.96427700  0.38443200  1.0
