# generated using pymatgen
data_Hf
_symmetry_space_group_name_H-M   'P 1'
_cell_length_a   10.76117956
_cell_length_b   11.05429597
_cell_length_c   11.38438867
_cell_angle_alpha   88.60548486
_cell_angle_beta   88.66121343
_cell_angle_gamma   86.84475185
_symmetry_Int_Tables_number   1
_chemical_formula_structural   Hf
_chemical_formula_sum   Hf34
_cell_volume   1351.47316725
_cell_formula_units_Z   34
loop_
 _symmetry_equiv_pos_site_id
 _symmetry_equiv_pos_as_xyz
  1  'x, y, z'
loop_
 _atom_site_type_symbol
 _atom_site_label
 _atom_site_symmetry_multiplicity
 _atom_site_fract_x
 _atom_site_fract_y
 _atom_site_fract_z
 _atom_site_occupancy
  Hf  Hf0  1  0.46237113  0.21943564  0.41150085  1.0
  Hf  Hf1  1  0.53866667  0.67282789  0.48936449  1.0
  Hf  Hf2  1  0.21447530  0.63838515  0.51699960  1.0
  Hf  Hf3  1  0.88658481  0.74902126  0.51865125  1.0
  Hf  Hf4  1  0.28145555  0.99411823  0.90119649  1.0
  Hf  Hf5  1  0.43526991  0.49294064  0.30074811  1.0
  Hf  Hf6  1  0.47463310  0.44491420  0.98792862  1.0
  Hf  Hf7  1  0.57798910  0.05070425  0.97142479  1.0
  Hf  Hf8  1  0.97082681  0.11159488  0.45142135  1.0
  Hf  Hf9  1  0.90259018  0.30364245  0.67920535  1.0
  Hf  Hf10  1  0.02036286  0.82872958  0.99296857  1.0
  Hf  Hf11  1  0.94246522  0.65857925  0.21257751  1.0
  Hf  Hf12  1  0.16927570  0.94784632  0.21288116  1.0
  Hf  Hf13  1  0.53495473  0.37353744  0.64781105  1.0
  Hf  Hf14  1  0.03271968  0.57054948  0.79520211  1.0
  Hf  Hf15  1  0.72025818  0.53493577  0.75664508  1.0
  Hf  Hf16  1  0.69604744  0.73984420  0.03943360  1.0
  Hf  Hf17  1  0.20340929  0.35215012  0.60570966  1.0
  Hf  Hf18  1  0.87662206  0.93500841  0.25269254  1.0
  Hf  Hf19  1  0.72361651  0.46031402  0.23702187  1.0
  Hf  Hf20  1  0.50819246  0.93993098  0.27486729  1.0
  Hf  Hf21  1  0.37846436  0.11710078  0.68199673  1.0
  Hf  Hf22  1  0.34573439  0.72147715  0.78623793  1.0
  Hf  Hf23  1  0.69830168  0.18512824  0.18178077  1.0
  Hf  Hf24  1  0.00181933  0.21442065  0.17339391  1.0
  Hf  Hf25  1  0.35481131  0.19286941  0.14030392  1.0
  Hf  Hf26  1  0.37035792  0.75952847  0.08434864  1.0
  Hf  Hf27  1  0.69999596  0.05046112  0.54938085  1.0
  Hf  Hf28  1  0.04670716  0.43432792  0.37335758  1.0
  Hf  Hf29  1  0.17514095  0.51095597  0.09838331  1.0
  Hf  Hf30  1  0.11183653  0.91462800  0.67334317  1.0
  Hf  Hf31  1  0.79468783  0.82124237  0.78508865  1.0
  Hf  Hf32  1  0.91551892  0.09490358  0.92978087  1.0
  Hf  Hf33  1  0.17657311  0.28959893  0.89929441  1.0
