# generated using pymatgen
data_Hf
_symmetry_space_group_name_H-M   'P 1'
_cell_length_a   10.85027468
_cell_length_b   10.91359136
_cell_length_c   11.23709003
_cell_angle_alpha   89.48080744
_cell_angle_beta   87.59636824
_cell_angle_gamma   90.58619606
_symmetry_Int_Tables_number   1
_chemical_formula_structural   Hf
_chemical_formula_sum   Hf34
_cell_volume   1329.34492950
_cell_formula_units_Z   34
loop_
 _symmetry_equiv_pos_site_id
 _symmetry_equiv_pos_as_xyz
  1  'x, y, z'
loop_
 _atom_site_type_symbol
 _atom_site_label
 _atom_site_symmetry_multiplicity
 _atom_site_fract_x
 _atom_site_fract_y
 _atom_site_fract_z
 _atom_site_occupancy
  Hf  Hf0  1  0.25494894  0.73319361  0.33105100  1.0
  Hf  Hf1  1  0.54159815  0.39403395  0.58134734  1.0
  Hf  Hf2  1  0.76729486  0.65120482  0.46146765  1.0
  Hf  Hf3  1  0.64235304  0.95650750  0.45793717  1.0
  Hf  Hf4  1  0.93751733  0.67645024  0.90415192  1.0
  Hf  Hf5  1  0.44482342  0.41369842  0.27323681  1.0
  Hf  Hf6  1  0.45642779  0.39637226  0.99999263  1.0
  Hf  Hf7  1  0.11503403  0.44592427  0.83197092  1.0
  Hf  Hf8  1  0.04632237  0.16096663  0.61214754  1.0
  Hf  Hf9  1  0.32146886  0.19977601  0.75353800  1.0
  Hf  Hf10  1  0.86860773  0.91896760  0.07665754  1.0
  Hf  Hf11  1  0.55698472  0.09502456  0.14958717  1.0
  Hf  Hf12  1  0.97875886  0.92626067  0.41496091  1.0
  Hf  Hf13  1  0.48102624  0.67993212  0.57426197  1.0
  Hf  Hf14  1  0.55241698  0.91527609  0.74642242  1.0
  Hf  Hf15  1  0.61599762  0.19169569  0.81544418  1.0
  Hf  Hf16  1  0.78214889  0.27289142  0.03456452  1.0
  Hf  Hf17  1  0.29105637  0.92716083  0.54634446  1.0
  Hf  Hf18  1  0.87377070  0.15218286  0.28050844  1.0
  Hf  Hf19  1  0.44435312  0.17042075  0.42324357  1.0
  Hf  Hf20  1  0.95255953  0.44334684  0.37236817  1.0
  Hf  Hf21  1  0.05431556  0.68144384  0.62937386  1.0
  Hf  Hf22  1  0.62162793  0.63203385  0.82042077  1.0
  Hf  Hf23  1  0.17946530  0.19523961  0.31796770  1.0
  Hf  Hf24  1  0.25334110  0.90878280  0.09274925  1.0
  Hf  Hf25  1  0.18439659  0.55891032  0.11154221  1.0
  Hf  Hf26  1  0.75649001  0.58869135  0.13086566  1.0
  Hf  Hf27  1  0.22486010  0.47313679  0.48646747  1.0
  Hf  Hf28  1  0.51187171  0.80323337  0.08373974  1.0
  Hf  Hf29  1  0.31282041  0.68339617  0.86055277  1.0
  Hf  Hf30  1  0.85416868  0.94081940  0.73527431  1.0
  Hf  Hf31  1  0.82099763  0.39909685  0.70184079  1.0
  Hf  Hf32  1  0.08868984  0.15600690  0.04102792  1.0
  Hf  Hf33  1  0.14206504  0.96297793  0.82412499  1.0
