# generated using pymatgen
data_Hf
_symmetry_space_group_name_H-M   'P 1'
_cell_length_a   5.04013800
_cell_length_b   5.07445100
_cell_length_c   5.26927600
_cell_angle_alpha   90.00000000
_cell_angle_beta   90.00000000
_cell_angle_gamma   90.00000000
_symmetry_Int_Tables_number   1
_chemical_formula_structural   Hf
_chemical_formula_sum   Hf4
_cell_volume   134.76665159
_cell_formula_units_Z   4
loop_
 _symmetry_equiv_pos_site_id
 _symmetry_equiv_pos_as_xyz
  1  'x, y, z'
loop_
 _atom_site_type_symbol
 _atom_site_label
 _atom_site_symmetry_multiplicity
 _atom_site_fract_x
 _atom_site_fract_y
 _atom_site_fract_z
 _atom_site_occupancy
  Hf  Hf0  1  0.26743600  0.24256900  0.03379500  1.0
  Hf  Hf1  1  0.26743600  0.74256900  0.46620500  1.0
  Hf  Hf2  1  0.73256400  0.24256900  0.53379500  1.0
  Hf  Hf3  1  0.73256400  0.74256900  0.96620500  1.0
