# generated using pymatgen
data_Hf
_symmetry_space_group_name_H-M   'P 1'
_cell_length_a   4.87030500
_cell_length_b   5.82594200
_cell_length_c   16.03650900
_cell_angle_alpha   90.00000000
_cell_angle_beta   90.00000000
_cell_angle_gamma   90.00000000
_symmetry_Int_Tables_number   1
_chemical_formula_structural   Hf
_chemical_formula_sum   Hf12
_cell_volume   455.02174178
_cell_formula_units_Z   12
loop_
 _symmetry_equiv_pos_site_id
 _symmetry_equiv_pos_as_xyz
  1  'x, y, z'
loop_
 _atom_site_type_symbol
 _atom_site_label
 _atom_site_symmetry_multiplicity
 _atom_site_fract_x
 _atom_site_fract_y
 _atom_site_fract_z
 _atom_site_occupancy
  Hf  Hf0  1  0.00277300  0.34650800  0.08410100  1.0
  Hf  Hf1  1  0.00000000  0.02209700  0.25000000  1.0
  Hf  Hf2  1  0.99722700  0.34650800  0.41589900  1.0
  Hf  Hf3  1  0.00000000  0.97790300  0.75000000  1.0
  Hf  Hf4  1  0.00277300  0.65349200  0.58410100  1.0
  Hf  Hf5  1  0.99722700  0.65349200  0.91589900  1.0
  Hf  Hf6  1  0.49722700  0.15349200  0.58410100  1.0
  Hf  Hf7  1  0.50000000  0.52209700  0.25000000  1.0
  Hf  Hf8  1  0.50277300  0.15349200  0.91589900  1.0
  Hf  Hf9  1  0.50000000  0.47790300  0.75000000  1.0
  Hf  Hf10  1  0.50277300  0.84650800  0.41589900  1.0
  Hf  Hf11  1  0.49722700  0.84650800  0.08410100  1.0
