# generated using pymatgen
data_Hf
_symmetry_space_group_name_H-M   'P 1'
_cell_length_a   10.86933980
_cell_length_b   10.99487724
_cell_length_c   11.13548015
_cell_angle_alpha   90.80401809
_cell_angle_beta   92.29869497
_cell_angle_gamma   93.76473825
_symmetry_Int_Tables_number   1
_chemical_formula_structural   Hf
_chemical_formula_sum   Hf34
_cell_volume   1326.64282940
_cell_formula_units_Z   34
loop_
 _symmetry_equiv_pos_site_id
 _symmetry_equiv_pos_as_xyz
  1  'x, y, z'
loop_
 _atom_site_type_symbol
 _atom_site_label
 _atom_site_symmetry_multiplicity
 _atom_site_fract_x
 _atom_site_fract_y
 _atom_site_fract_z
 _atom_site_occupancy
  Hf  Hf0  1  0.49504759  0.35090773  0.98918498  1.0
  Hf  Hf1  1  0.60118825  0.60239254  0.95571107  1.0
  Hf  Hf2  1  0.25723375  0.35747361  0.51035051  1.0
  Hf  Hf3  1  0.46781088  0.84170183  0.59347566  1.0
  Hf  Hf4  1  0.98273756  0.45138694  0.84908709  1.0
  Hf  Hf5  1  0.31490798  0.34091334  0.24454602  1.0
  Hf  Hf6  1  0.04051930  0.49977066  0.34130731  1.0
  Hf  Hf7  1  0.30140836  0.59036374  0.09402592  1.0
  Hf  Hf8  1  0.51032666  0.09301105  0.12568000  1.0
  Hf  Hf9  1  0.67167614  0.86332241  0.37405422  1.0
  Hf  Hf10  1  0.97086552  0.98693216  0.88525239  1.0
  Hf  Hf11  1  0.19101573  0.92817636  0.68871598  1.0
  Hf  Hf12  1  0.43842061  0.13866346  0.71322334  1.0
  Hf  Hf13  1  0.77988576  0.58341912  0.39443599  1.0
  Hf  Hf14  1  0.71435970  0.01369195  0.71140574  1.0
  Hf  Hf15  1  0.78441812  0.73309288  0.70481445  1.0
  Hf  Hf16  1  0.08478964  0.71459207  0.86536074  1.0
  Hf  Hf17  1  0.55691786  0.30614782  0.45673185  1.0
  Hf  Hf18  1  0.36536414  0.88104607  0.92855023  1.0
  Hf  Hf19  1  0.24667280  0.62438383  0.64533424  1.0
  Hf  Hf20  1  0.22846066  0.33928546  0.78269492  1.0
  Hf  Hf21  1  0.77022744  0.38212208  0.18332462  1.0
  Hf  Hf22  1  0.66526782  0.45401665  0.68450168  1.0
  Hf  Hf23  1  0.01340539  0.79730371  0.36006356  1.0
  Hf  Hf24  1  0.15557534  0.02190020  0.15665508  1.0
  Hf  Hf25  1  0.05900482  0.27928402  0.09091165  1.0
  Hf  Hf26  1  0.90360563  0.30468234  0.57590658  1.0
  Hf  Hf27  1  0.43621412  0.61309741  0.35527440  1.0
  Hf  Hf28  1  0.38212416  0.04877039  0.40836281  1.0
  Hf  Hf29  1  0.95612809  0.03316226  0.54907460  1.0
  Hf  Hf30  1  0.74290549  0.25300510  0.88552156  1.0
  Hf  Hf31  1  0.67616384  0.87782835  0.00982957  1.0
  Hf  Hf32  1  0.92794107  0.69969552  0.10720531  1.0
  Hf  Hf33  1  0.83879244  0.05188087  0.21781759  1.0
