# generated using pymatgen
data_Hf
_symmetry_space_group_name_H-M   'P 1'
_cell_length_a   10.59779028
_cell_length_b   10.69610259
_cell_length_c   11.80364839
_cell_angle_alpha   89.86154959
_cell_angle_beta   87.03197049
_cell_angle_gamma   84.50624555
_symmetry_Int_Tables_number   1
_chemical_formula_structural   Hf
_chemical_formula_sum   Hf34
_cell_volume   1330.06632634
_cell_formula_units_Z   34
loop_
 _symmetry_equiv_pos_site_id
 _symmetry_equiv_pos_as_xyz
  1  'x, y, z'
loop_
 _atom_site_type_symbol
 _atom_site_label
 _atom_site_symmetry_multiplicity
 _atom_site_fract_x
 _atom_site_fract_y
 _atom_site_fract_z
 _atom_site_occupancy
  Hf  Hf0  1  0.84821802  0.28329775  0.62115626  1.0
  Hf  Hf1  1  0.33206707  0.66923078  0.57978183  1.0
  Hf  Hf2  1  0.64542025  0.52983900  0.55066920  1.0
  Hf  Hf3  1  0.76086522  0.80432918  0.57465231  1.0
  Hf  Hf4  1  0.50922135  0.07599947  0.99612621  1.0
  Hf  Hf5  1  0.38507164  0.40834804  0.74757490  1.0
  Hf  Hf6  1  0.42031642  0.32828552  0.14870322  1.0
  Hf  Hf7  1  0.43356484  0.11265346  0.32207709  1.0
  Hf  Hf8  1  0.23808187  0.88636044  0.36392137  1.0
  Hf  Hf9  1  0.16241451  0.49425628  0.07985407  1.0
  Hf  Hf10  1  0.80251333  0.96043698  0.05657249  1.0
  Hf  Hf11  1  0.03919923  0.58059221  0.65251764  1.0
  Hf  Hf12  1  0.72640951  0.98609139  0.78651775  1.0
  Hf  Hf13  1  0.68673128  0.28362639  0.40052286  1.0
  Hf  Hf14  1  0.95016744  0.47861119  0.35057034  1.0
  Hf  Hf15  1  0.46071489  0.55342606  0.28872571  1.0
  Hf  Hf16  1  0.33598042  0.69395238  0.89951129  1.0
  Hf  Hf17  1  0.04612399  0.12733835  0.44385460  1.0
  Hf  Hf18  1  0.06021355  0.89052461  0.65981615  1.0
  Hf  Hf19  1  0.26224475  0.39185240  0.47605746  1.0
  Hf  Hf20  1  0.35565863  0.95618605  0.78805020  1.0
  Hf  Hf21  1  0.65308270  0.81021999  0.33227274  1.0
  Hf  Hf22  1  0.57255335  0.73657596  0.05708223  1.0
  Hf  Hf23  1  0.15324389  0.19700142  0.69088657  1.0
  Hf  Hf24  1  0.94235254  0.39147354  0.87019836  1.0
  Hf  Hf25  1  0.65747891  0.28689687  0.85831552  1.0
  Hf  Hf26  1  0.68892355  0.58454456  0.83413559  1.0
  Hf  Hf27  1  0.52534183  0.15532903  0.61782498  1.0
  Hf  Hf28  1  0.96987931  0.70556758  0.93079637  1.0
  Hf  Hf29  1  0.71821657  0.31130437  0.13475445  1.0
  Hf  Hf30  1  0.93959576  0.82673516  0.28206768  1.0
  Hf  Hf31  1  0.19606549  0.85862605  0.09596453  1.0
  Hf  Hf32  1  0.18223207  0.20261503  0.96172781  1.0
  Hf  Hf33  1  0.00844416  0.16688367  0.18256141  1.0
