# generated using pymatgen
data_Pb
_symmetry_space_group_name_H-M   'P 1'
_cell_length_a   5.97892400
_cell_length_b   8.31703500
_cell_length_c   11.94582300
_cell_angle_alpha   90.00000000
_cell_angle_beta   90.00000000
_cell_angle_gamma   90.00000000
_symmetry_Int_Tables_number   1
_chemical_formula_structural   Pb
_chemical_formula_sum   Pb8
_cell_volume   594.02898669
_cell_formula_units_Z   8
loop_
 _symmetry_equiv_pos_site_id
 _symmetry_equiv_pos_as_xyz
  1  'x, y, z'
loop_
 _atom_site_type_symbol
 _atom_site_label
 _atom_site_symmetry_multiplicity
 _atom_site_fract_x
 _atom_site_fract_y
 _atom_site_fract_z
 _atom_site_occupancy
  Pb  Pb0  1  0.30439500  0.00000000  0.87641800  1.0
  Pb  Pb1  1  0.80439500  0.00000000  0.62358200  1.0
  Pb  Pb2  1  0.69560500  0.00000000  0.12358200  1.0
  Pb  Pb3  1  0.19560500  0.00000000  0.37641800  1.0
  Pb  Pb4  1  0.29246000  0.50000000  0.87180800  1.0
  Pb  Pb5  1  0.79246000  0.50000000  0.62819200  1.0
  Pb  Pb6  1  0.70754000  0.50000000  0.12819200  1.0
  Pb  Pb7  1  0.20754000  0.50000000  0.37180800  1.0
