# generated using pymatgen
data_Pb
_symmetry_space_group_name_H-M   'P 1'
_cell_length_a   6.04234100
_cell_length_b   8.38609900
_cell_length_c   11.95611900
_cell_angle_alpha   90.00000000
_cell_angle_beta   90.00000000
_cell_angle_gamma   90.00000000
_symmetry_Int_Tables_number   1
_chemical_formula_structural   Pb
_chemical_formula_sum   Pb8
_cell_volume   605.83651427
_cell_formula_units_Z   8
loop_
 _symmetry_equiv_pos_site_id
 _symmetry_equiv_pos_as_xyz
  1  'x, y, z'
loop_
 _atom_site_type_symbol
 _atom_site_label
 _atom_site_symmetry_multiplicity
 _atom_site_fract_x
 _atom_site_fract_y
 _atom_site_fract_z
 _atom_site_occupancy
  Pb  Pb0  1  0.30926800  0.98859300  0.86311000  1.0
  Pb  Pb1  1  0.69073200  0.98859300  0.13689000  1.0
  Pb  Pb2  1  0.80926800  0.98859300  0.63689000  1.0
  Pb  Pb3  1  0.30765500  0.48931300  0.85777100  1.0
  Pb  Pb4  1  0.69234500  0.48931300  0.14222900  1.0
  Pb  Pb5  1  0.19073200  0.98859300  0.36311000  1.0
  Pb  Pb6  1  0.80765500  0.48931300  0.64222900  1.0
  Pb  Pb7  1  0.19234500  0.48931300  0.35777100  1.0
