# generated using pymatgen
data_UNi
_symmetry_space_group_name_H-M   'P 1'
_cell_length_a   4.16904000
_cell_length_b   5.32923048
_cell_length_c   5.56750383
_cell_angle_alpha   75.43659988
_cell_angle_beta   68.01224916
_cell_angle_gamma   66.97402463
_symmetry_Int_Tables_number   1
_chemical_formula_structural   UNi
_chemical_formula_sum   'U2 Ni2'
_cell_volume   104.75972098
_cell_formula_units_Z   2
loop_
 _symmetry_equiv_pos_site_id
 _symmetry_equiv_pos_as_xyz
  1  'x, y, z'
loop_
 _atom_site_type_symbol
 _atom_site_label
 _atom_site_symmetry_multiplicity
 _atom_site_fract_x
 _atom_site_fract_y
 _atom_site_fract_z
 _atom_site_occupancy
  U  U0  1  0.44898700  0.77630500  0.32572100  1.0
  U  U1  1  0.55101300  0.22369500  0.67427900  1.0
  Ni  Ni2  1  0.83675200  0.61289400  0.71360200  1.0
  Ni  Ni3  1  0.16324800  0.38710600  0.28639800  1.0
