# generated using pymatgen
data_Fe
_symmetry_space_group_name_H-M   'P 1'
_cell_length_a   6.64424955
_cell_length_b   6.64424955
_cell_length_c   8.24499700
_cell_angle_alpha   90.00000000
_cell_angle_beta   90.00000000
_cell_angle_gamma   104.86121548
_symmetry_Int_Tables_number   1
_chemical_formula_structural   Fe
_chemical_formula_sum   Fe8
_cell_volume   351.80876923
_cell_formula_units_Z   8
loop_
 _symmetry_equiv_pos_site_id
 _symmetry_equiv_pos_as_xyz
  1  'x, y, z'
loop_
 _atom_site_type_symbol
 _atom_site_label
 _atom_site_symmetry_multiplicity
 _atom_site_fract_x
 _atom_site_fract_y
 _atom_site_fract_z
 _atom_site_occupancy
  Fe  Fe0  1  0.69663500  0.69663500  0.31239900  1.0
  Fe  Fe1  1  0.30336500  0.30336500  0.68760100  1.0
  Fe  Fe2  1  0.28165300  0.71834700  0.50000000  1.0
  Fe  Fe3  1  0.78165300  0.21834700  0.00000000  1.0
  Fe  Fe4  1  0.19663500  0.19663500  0.18760100  1.0
  Fe  Fe5  1  0.71834700  0.28165300  0.50000000  1.0
  Fe  Fe6  1  0.21834700  0.78165300  0.00000000  1.0
  Fe  Fe7  1  0.80336500  0.80336500  0.81239900  1.0
