# generated using pymatgen
data_Nd2Cu
_symmetry_space_group_name_H-M   'P 1'
_cell_length_a   5.24944800
_cell_length_b   5.59673400
_cell_length_c   6.91514864
_cell_angle_alpha   90.00000000
_cell_angle_beta   112.30652190
_cell_angle_gamma   90.00000000
_symmetry_Int_Tables_number   1
_chemical_formula_structural   Nd2Cu
_chemical_formula_sum   'Nd4 Cu2'
_cell_volume   187.96185904
_cell_formula_units_Z   2
loop_
 _symmetry_equiv_pos_site_id
 _symmetry_equiv_pos_as_xyz
  1  'x, y, z'
loop_
 _atom_site_type_symbol
 _atom_site_label
 _atom_site_symmetry_multiplicity
 _atom_site_fract_x
 _atom_site_fract_y
 _atom_site_fract_z
 _atom_site_occupancy
  Nd  Nd0  1  0.36116600  0.01837100  0.72233200  1.0
  Nd  Nd1  1  0.63883400  0.98162900  0.27766800  1.0
  Nd  Nd2  1  0.13883400  0.51837100  0.27766800  1.0
  Nd  Nd3  1  0.86116600  0.48162900  0.72233200  1.0
  Cu  Cu4  1  0.00000000  0.00000000  0.00000000  1.0
  Cu  Cu5  1  0.50000000  0.50000000  1.00000000  1.0
