# generated using pymatgen
data_Nd2Cu
_symmetry_space_group_name_H-M   'P 1'
_cell_length_a   3.98774313
_cell_length_b   3.98774313
_cell_length_c   6.52367809
_cell_angle_alpha   106.06587786
_cell_angle_beta   106.06587786
_cell_angle_gamma   90.08129785
_symmetry_Int_Tables_number   1
_chemical_formula_structural   Nd2Cu
_chemical_formula_sum   'Nd2 Cu1'
_cell_volume   95.45266013
_cell_formula_units_Z   1
loop_
 _symmetry_equiv_pos_site_id
 _symmetry_equiv_pos_as_xyz
  1  'x, y, z'
loop_
 _atom_site_type_symbol
 _atom_site_label
 _atom_site_symmetry_multiplicity
 _atom_site_fract_x
 _atom_site_fract_y
 _atom_site_fract_z
 _atom_site_occupancy
  Nd  Nd0  1  0.65531600  0.65531600  0.29902800  1.0
  Nd  Nd1  1  0.34468400  0.34468400  0.70097200  1.0
  Cu  Cu2  1  0.00000000  0.00000000  0.00000000  1.0
