# generated using pymatgen
data_TbMn2
_symmetry_space_group_name_H-M   'P 1'
_cell_length_a   5.58259100
_cell_length_b   7.79015800
_cell_length_c   11.14421943
_cell_angle_alpha   89.99825029
_cell_angle_beta   89.89582177
_cell_angle_gamma   89.99908064
_symmetry_Int_Tables_number   1
_chemical_formula_structural   TbMn2
_chemical_formula_sum   'Tb4 Mn8'
_cell_volume   484.65312105
_cell_formula_units_Z   4
loop_
 _symmetry_equiv_pos_site_id
 _symmetry_equiv_pos_as_xyz
  1  'x, y, z'
loop_
 _atom_site_type_symbol
 _atom_site_label
 _atom_site_symmetry_multiplicity
 _atom_site_fract_x
 _atom_site_fract_y
 _atom_site_fract_z
 _atom_site_occupancy
  Tb  Tb0  1  0.72988100  0.49669800  0.12940700  1.0
  Tb  Tb1  1  0.27011900  0.50330200  0.87059300  1.0
  Tb  Tb2  1  0.77832700  0.49559100  0.62100300  1.0
  Tb  Tb3  1  0.22167300  0.50440900  0.37899700  1.0
  Mn  Mn4  1  0.25055000  0.26009600  0.12496100  1.0
  Mn  Mn5  1  0.74945000  0.73990400  0.87503900  1.0
  Mn  Mn6  1  0.24885300  0.25530000  0.62378000  1.0
  Mn  Mn7  1  0.75114700  0.74470000  0.37622000  1.0
  Mn  Mn8  1  0.24898000  0.74152100  0.12463900  1.0
  Mn  Mn9  1  0.75102000  0.25847900  0.87536100  1.0
  Mn  Mn10  1  0.25071500  0.74574700  0.62397900  1.0
  Mn  Mn11  1  0.74928500  0.25425300  0.37602100  1.0
