# generated using pymatgen
data_Mn4Cu3
_symmetry_space_group_name_H-M   'P 1'
_cell_length_a   6.38532047
_cell_length_b   6.41090801
_cell_length_c   6.42492269
_cell_angle_alpha   69.07141763
_cell_angle_beta   70.44068961
_cell_angle_gamma   108.28627161
_symmetry_Int_Tables_number   1
_chemical_formula_structural   Mn4Cu3
_chemical_formula_sum   'Mn4 Cu3'
_cell_volume   201.47807082
_cell_formula_units_Z   1
loop_
 _symmetry_equiv_pos_site_id
 _symmetry_equiv_pos_as_xyz
  1  'x, y, z'
loop_
 _atom_site_type_symbol
 _atom_site_label
 _atom_site_symmetry_multiplicity
 _atom_site_fract_x
 _atom_site_fract_y
 _atom_site_fract_z
 _atom_site_occupancy
  Mn  Mn0  1  0.00000900  0.99994500  0.49999900  1.0
  Mn  Mn1  1  0.49995800  0.49998400  0.50001700  1.0
  Mn  Mn2  1  0.49996500  0.99998900  0.00007100  1.0
  Mn  Mn3  1  0.99996300  0.49995300  0.00003400  1.0
  Cu  Cu4  1  0.49988400  0.99966800  0.50007900  1.0
  Cu  Cu5  1  0.50014000  0.50027600  0.99989000  1.0
  Cu  Cu6  1  0.00017500  0.50007800  0.49994500  1.0
