# generated using pymatgen
data_Co
_symmetry_space_group_name_H-M   'P 1'
_cell_length_a   3.01778000
_cell_length_b   7.47129852
_cell_length_c   7.56489745
_cell_angle_alpha   74.69135362
_cell_angle_beta   78.49465127
_cell_angle_gamma   78.34850735
_symmetry_Int_Tables_number   1
_chemical_formula_structural   Co
_chemical_formula_sum   Co4
_cell_volume   159.18209033
_cell_formula_units_Z   4
loop_
 _symmetry_equiv_pos_site_id
 _symmetry_equiv_pos_as_xyz
  1  'x, y, z'
loop_
 _atom_site_type_symbol
 _atom_site_label
 _atom_site_symmetry_multiplicity
 _atom_site_fract_x
 _atom_site_fract_y
 _atom_site_fract_z
 _atom_site_occupancy
  Co  Co0  1  0.36898000  0.30741200  0.95462800  1.0
  Co  Co1  1  0.86818700  0.95493300  0.30869300  1.0
  Co  Co2  1  0.13181300  0.04506700  0.69130700  1.0
  Co  Co3  1  0.63102000  0.69258800  0.04537200  1.0
