# generated using pymatgen
data_Co
_symmetry_space_group_name_H-M   'P 1'
_cell_length_a   5.93556724
_cell_length_b   5.93556772
_cell_length_c   19.76579685
_cell_angle_alpha   81.36452521
_cell_angle_beta   81.36452169
_cell_angle_gamma   59.99999978
_symmetry_Int_Tables_number   1
_chemical_formula_structural   Co
_chemical_formula_sum   Co16
_cell_volume   593.93935201
_cell_formula_units_Z   16
loop_
 _symmetry_equiv_pos_site_id
 _symmetry_equiv_pos_as_xyz
  1  'x, y, z'
loop_
 _atom_site_type_symbol
 _atom_site_label
 _atom_site_symmetry_multiplicity
 _atom_site_fract_x
 _atom_site_fract_y
 _atom_site_fract_z
 _atom_site_occupancy
  Co  Co0  1  0.68849294  0.68849294  0.93452120  1.0
  Co  Co1  1  0.21853507  0.71915602  0.84377383  1.0
  Co  Co2  1  0.43791432  0.43791432  0.68625705  1.0
  Co  Co3  1  0.71915602  0.21853507  0.84377383  1.0
  Co  Co4  1  0.21853507  0.21853507  0.84377383  1.0
  Co  Co5  1  0.96868820  0.47048019  0.59214340  1.0
  Co  Co6  1  0.47048019  0.96868820  0.59214340  1.0
  Co  Co7  1  0.96868820  0.96868820  0.59214340  1.0
  Co  Co8  1  0.71875719  0.21804755  0.34443805  1.0
  Co  Co9  1  0.21804755  0.71875719  0.34443805  1.0
  Co  Co10  1  0.84421690  0.84421690  0.46734931  1.0
  Co  Co11  1  0.71875719  0.71875719  0.34443805  1.0
  Co  Co12  1  0.46821642  0.96891144  0.09465574  1.0
  Co  Co13  1  0.96891144  0.46821642  0.09465574  1.0
  Co  Co14  1  0.59340403  0.59340403  0.21978789  1.0
  Co  Co15  1  0.46821642  0.46821642  0.09465574  1.0
