# generated using pymatgen
data_Co
_symmetry_space_group_name_H-M   'P 1'
_cell_length_a   5.89436000
_cell_length_b   5.98232231
_cell_length_c   5.92911200
_cell_angle_alpha   119.70620291
_cell_angle_beta   90.00000000
_cell_angle_gamma   119.51478570
_symmetry_Int_Tables_number   1
_chemical_formula_structural   Co
_chemical_formula_sum   Co4
_cell_volume   149.55969555
_cell_formula_units_Z   4
loop_
 _symmetry_equiv_pos_site_id
 _symmetry_equiv_pos_as_xyz
  1  'x, y, z'
loop_
 _atom_site_type_symbol
 _atom_site_label
 _atom_site_symmetry_multiplicity
 _atom_site_fract_x
 _atom_site_fract_y
 _atom_site_fract_z
 _atom_site_occupancy
  Co  Co0  1  0.11859400  0.23718800  0.86859400  1.0
  Co  Co1  1  0.88140600  0.76281200  0.13140600  1.0
  Co  Co2  1  0.50000000  0.50000000  0.50000000  1.0
  Co  Co3  1  1.00000000  0.50000000  0.50000000  1.0
