# generated using pymatgen
data_Co
_symmetry_space_group_name_H-M   'P 1'
_cell_length_a   2.92739982
_cell_length_b   9.69061310
_cell_length_c   9.74213473
_cell_angle_alpha   90.00959962
_cell_angle_beta   89.86714958
_cell_angle_gamma   90.09021003
_symmetry_Int_Tables_number   1
_chemical_formula_structural   Co
_chemical_formula_sum   Co8
_cell_volume   276.36670218
_cell_formula_units_Z   8
loop_
 _symmetry_equiv_pos_site_id
 _symmetry_equiv_pos_as_xyz
  1  'x, y, z'
loop_
 _atom_site_type_symbol
 _atom_site_label
 _atom_site_symmetry_multiplicity
 _atom_site_fract_x
 _atom_site_fract_y
 _atom_site_fract_z
 _atom_site_occupancy
  Co  Co0  1  0.75481600  0.38317000  0.42842400  1.0
  Co  Co1  1  0.75145700  0.11831600  0.92803200  1.0
  Co  Co2  1  0.24623500  0.61729000  0.92856000  1.0
  Co  Co3  1  0.75851800  0.11831200  0.57037100  1.0
  Co  Co4  1  0.24614100  0.61781600  0.57048600  1.0
  Co  Co5  1  0.75333600  0.38097600  0.07158100  1.0
  Co  Co6  1  0.24264600  0.88290000  0.07009300  1.0
  Co  Co7  1  0.25084500  0.88126800  0.42892900  1.0
