# generated using pymatgen
data_Co
_symmetry_space_group_name_H-M   'P 1'
_cell_length_a   5.95306200
_cell_length_b   5.95306207
_cell_length_c   14.70612000
_cell_angle_alpha   90.00000000
_cell_angle_beta   90.00000000
_cell_angle_gamma   119.99999963
_symmetry_Int_Tables_number   1
_chemical_formula_structural   Co
_chemical_formula_sum   Co12
_cell_volume   451.34595580
_cell_formula_units_Z   12
loop_
 _symmetry_equiv_pos_site_id
 _symmetry_equiv_pos_as_xyz
  1  'x, y, z'
loop_
 _atom_site_type_symbol
 _atom_site_label
 _atom_site_symmetry_multiplicity
 _atom_site_fract_x
 _atom_site_fract_y
 _atom_site_fract_z
 _atom_site_occupancy
  Co  Co0  1  0.16591500  0.33183000  0.16671800  1.0
  Co  Co1  1  0.16591500  0.83408600  0.16671800  1.0
  Co  Co2  1  0.49933500  0.99867000  0.50030100  1.0
  Co  Co3  1  0.66817100  0.83408600  0.16671800  1.0
  Co  Co4  1  0.49933500  0.50066400  0.50030100  1.0
  Co  Co5  1  0.66666667  0.33333333  0.66428300  1.0
  Co  Co6  1  0.66666667  0.33333333  0.28959200  1.0
  Co  Co7  1  0.83353300  0.66706600  0.83292100  1.0
  Co  Co8  1  0.00132900  0.50066400  0.50030100  1.0
  Co  Co9  1  0.83353300  0.16646800  0.83292100  1.0
  Co  Co10  1  0.33293500  0.16646800  0.83292100  1.0
  Co  Co11  1  0.33333333  0.66666667  0.95664600  1.0
