# generated using pymatgen
data_Co
_symmetry_space_group_name_H-M   'P 1'
_cell_length_a   5.95410400
_cell_length_b   5.95410372
_cell_length_c   14.64014700
_cell_angle_alpha   90.00000000
_cell_angle_beta   90.00000000
_cell_angle_gamma   120.00000155
_symmetry_Int_Tables_number   1
_chemical_formula_structural   Co
_chemical_formula_sum   Co12
_cell_volume   449.47844960
_cell_formula_units_Z   12
loop_
 _symmetry_equiv_pos_site_id
 _symmetry_equiv_pos_as_xyz
  1  'x, y, z'
loop_
 _atom_site_type_symbol
 _atom_site_label
 _atom_site_symmetry_multiplicity
 _atom_site_fract_x
 _atom_site_fract_y
 _atom_site_fract_z
 _atom_site_occupancy
  Co  Co0  1  0.16563200  0.83436800  0.16682500  1.0
  Co  Co1  1  0.66873600  0.83436800  0.16682500  1.0
  Co  Co2  1  0.50025300  0.49974700  0.50007700  1.0
  Co  Co3  1  0.16563200  0.33126400  0.16682500  1.0
  Co  Co4  1  0.33333333  0.66666667  0.33178300  1.0
  Co  Co5  1  0.99949400  0.49974700  0.50007700  1.0
  Co  Co6  1  0.83326000  0.16674000  0.83290500  1.0
  Co  Co7  1  0.50025300  0.00050600  0.50007700  1.0
  Co  Co8  1  0.83326000  0.66652000  0.83290500  1.0
  Co  Co9  1  0.66666667  0.33333333  0.66815700  1.0
  Co  Co10  1  0.33348000  0.16674000  0.83290500  1.0
  Co  Co11  1  0.33333333  0.66666667  0.95698200  1.0
