# generated using pymatgen
data_Co
_symmetry_space_group_name_H-M   'P 1'
_cell_length_a   2.95632800
_cell_length_b   9.18805400
_cell_length_c   10.26824000
_cell_angle_alpha   90.00000000
_cell_angle_beta   90.00000000
_cell_angle_gamma   90.00000000
_symmetry_Int_Tables_number   1
_chemical_formula_structural   Co
_chemical_formula_sum   Co8
_cell_volume   278.91518970
_cell_formula_units_Z   8
loop_
 _symmetry_equiv_pos_site_id
 _symmetry_equiv_pos_as_xyz
  1  'x, y, z'
loop_
 _atom_site_type_symbol
 _atom_site_label
 _atom_site_symmetry_multiplicity
 _atom_site_fract_x
 _atom_site_fract_y
 _atom_site_fract_z
 _atom_site_occupancy
  Co  Co0  1  0.25000000  0.90661100  0.10333000  1.0
  Co  Co1  1  0.75000000  0.59338900  0.60333000  1.0
  Co  Co2  1  0.25000000  0.40661100  0.39667000  1.0
  Co  Co3  1  0.75000000  0.09338900  0.89667000  1.0
  Co  Co4  1  0.75000000  0.05859700  0.38427300  1.0
  Co  Co5  1  0.25000000  0.94140300  0.61572700  1.0
  Co  Co6  1  0.75000000  0.55859700  0.11572700  1.0
  Co  Co7  1  0.25000000  0.44140300  0.88427300  1.0
