# generated using pymatgen
data_MnV2
_symmetry_space_group_name_H-M   'P 1'
_cell_length_a   3.00654400
_cell_length_b   9.26251000
_cell_length_c   10.70964700
_cell_angle_alpha   90.00000000
_cell_angle_beta   90.00000000
_cell_angle_gamma   90.00000000
_symmetry_Int_Tables_number   1
_chemical_formula_structural   MnV2
_chemical_formula_sum   'Mn4 V8'
_cell_volume   298.24379040
_cell_formula_units_Z   4
loop_
 _symmetry_equiv_pos_site_id
 _symmetry_equiv_pos_as_xyz
  1  'x, y, z'
loop_
 _atom_site_type_symbol
 _atom_site_label
 _atom_site_symmetry_multiplicity
 _atom_site_fract_x
 _atom_site_fract_y
 _atom_site_fract_z
 _atom_site_occupancy
  Mn  Mn0  1  0.25000000  0.75174900  0.64954300  1.0
  Mn  Mn1  1  0.25000000  0.25174900  0.85045700  1.0
  Mn  Mn2  1  0.75000000  0.74825100  0.14954300  1.0
  Mn  Mn3  1  0.75000000  0.24825100  0.35045700  1.0
  V  V4  1  0.25000000  0.43374200  0.61784400  1.0
  V  V5  1  0.75000000  0.08420700  0.60411300  1.0
  V  V6  1  0.25000000  0.93374200  0.88215600  1.0
  V  V7  1  0.75000000  0.58420700  0.89588700  1.0
  V  V8  1  0.25000000  0.41579300  0.10411300  1.0
  V  V9  1  0.75000000  0.06625800  0.11784400  1.0
  V  V10  1  0.25000000  0.91579300  0.39588700  1.0
  V  V11  1  0.75000000  0.56625800  0.38215600  1.0
