# generated using pymatgen
data_Ni
_symmetry_space_group_name_H-M   'P 1'
_cell_length_a   7.67290200
_cell_length_b   8.55584800
_cell_length_c   14.78482378
_cell_angle_alpha   89.72542159
_cell_angle_beta   90.00000000
_cell_angle_gamma   90.00000000
_symmetry_Int_Tables_number   1
_chemical_formula_structural   Ni
_chemical_formula_sum   Ni12
_cell_volume   970.58567485
_cell_formula_units_Z   12
loop_
 _symmetry_equiv_pos_site_id
 _symmetry_equiv_pos_as_xyz
  1  'x, y, z'
loop_
 _atom_site_type_symbol
 _atom_site_label
 _atom_site_symmetry_multiplicity
 _atom_site_fract_x
 _atom_site_fract_y
 _atom_site_fract_z
 _atom_site_occupancy
  Ni  Ni0  1  0.93908000  0.74441100  0.55737800  1.0
  Ni  Ni1  1  0.01872400  0.73668700  0.89965000  1.0
  Ni  Ni2  1  0.83156100  0.74580900  0.24899600  1.0
  Ni  Ni3  1  0.33156100  0.75419100  0.25100400  1.0
  Ni  Ni4  1  0.51872400  0.76331300  0.60035000  1.0
  Ni  Ni5  1  0.43908000  0.75558900  0.94262200  1.0
  Ni  Ni6  1  0.56092000  0.24441100  0.05737800  1.0
  Ni  Ni7  1  0.48127600  0.23668700  0.39965000  1.0
  Ni  Ni8  1  0.66843900  0.24580900  0.74899600  1.0
  Ni  Ni9  1  0.16843900  0.25419100  0.75100400  1.0
  Ni  Ni10  1  0.98127600  0.26331300  0.10035000  1.0
  Ni  Ni11  1  0.06092000  0.25558900  0.44262200  1.0
