# generated using pymatgen
data_Ni
_symmetry_space_group_name_H-M   'P 1'
_cell_length_a   7.41899700
_cell_length_b   8.53777200
_cell_length_c   15.17542954
_cell_angle_alpha   91.61009279
_cell_angle_beta   90.00000000
_cell_angle_gamma   90.00000000
_symmetry_Int_Tables_number   1
_chemical_formula_structural   Ni
_chemical_formula_sum   Ni12
_cell_volume   960.85806444
_cell_formula_units_Z   12
loop_
 _symmetry_equiv_pos_site_id
 _symmetry_equiv_pos_as_xyz
  1  'x, y, z'
loop_
 _atom_site_type_symbol
 _atom_site_label
 _atom_site_symmetry_multiplicity
 _atom_site_fract_x
 _atom_site_fract_y
 _atom_site_fract_z
 _atom_site_occupancy
  Ni  Ni0  1  0.68894400  0.05206200  0.40524900  1.0
  Ni  Ni1  1  0.81412600  0.08976600  0.76206300  1.0
  Ni  Ni2  1  0.68022100  0.08087000  0.07910000  1.0
  Ni  Ni3  1  0.18022100  0.41913000  0.42090000  1.0
  Ni  Ni4  1  0.31412600  0.41023400  0.73793700  1.0
  Ni  Ni5  1  0.18894400  0.44793800  0.09475100  1.0
  Ni  Ni6  1  0.81105600  0.55206200  0.90524900  1.0
  Ni  Ni7  1  0.68587400  0.58976600  0.26206300  1.0
  Ni  Ni8  1  0.81977900  0.58087000  0.57910000  1.0
  Ni  Ni9  1  0.31977900  0.91913000  0.92090000  1.0
  Ni  Ni10  1  0.18587400  0.91023400  0.23793700  1.0
  Ni  Ni11  1  0.31105600  0.94793800  0.59475100  1.0
