# generated using pymatgen
data_Ni
_symmetry_space_group_name_H-M   'P 1'
_cell_length_a   5.49464502
_cell_length_b   6.23961108
_cell_length_c   9.28187495
_cell_angle_alpha   74.89732998
_cell_angle_beta   80.98396444
_cell_angle_gamma   76.03735688
_symmetry_Int_Tables_number   1
_chemical_formula_structural   Ni
_chemical_formula_sum   Ni4
_cell_volume   296.65562219
_cell_formula_units_Z   4
loop_
 _symmetry_equiv_pos_site_id
 _symmetry_equiv_pos_as_xyz
  1  'x, y, z'
loop_
 _atom_site_type_symbol
 _atom_site_label
 _atom_site_symmetry_multiplicity
 _atom_site_fract_x
 _atom_site_fract_y
 _atom_site_fract_z
 _atom_site_occupancy
  Ni  Ni0  1  0.68518700  0.06482600  0.21426200  1.0
  Ni  Ni1  1  0.77440500  0.16615900  0.58623700  1.0
  Ni  Ni2  1  0.31488400  0.93517800  0.78582100  1.0
  Ni  Ni3  1  0.22571500  0.83372600  0.41379500  1.0
