# generated using pymatgen
data_Ni
_symmetry_space_group_name_H-M   'P 1'
_cell_length_a   4.92481901
_cell_length_b   6.99530801
_cell_length_c   9.95515001
_cell_angle_alpha   90.00397859
_cell_angle_beta   89.99947332
_cell_angle_gamma   90.00579637
_symmetry_Int_Tables_number   1
_chemical_formula_structural   Ni
_chemical_formula_sum   Ni4
_cell_volume   342.96114586
_cell_formula_units_Z   4
loop_
 _symmetry_equiv_pos_site_id
 _symmetry_equiv_pos_as_xyz
  1  'x, y, z'
loop_
 _atom_site_type_symbol
 _atom_site_label
 _atom_site_symmetry_multiplicity
 _atom_site_fract_x
 _atom_site_fract_y
 _atom_site_fract_z
 _atom_site_occupancy
  Ni  Ni0  1  0.26822500  0.00780800  0.64508900  1.0
  Ni  Ni1  1  0.76789500  0.99203900  0.35500300  1.0
  Ni  Ni2  1  0.76838200  0.50777300  0.85492600  1.0
  Ni  Ni3  1  0.26831500  0.49221000  0.14501700  1.0
