# generated using pymatgen
data_Ni
_symmetry_space_group_name_H-M   'P 1'
_cell_length_a   9.90099400
_cell_length_b   9.90099372
_cell_length_c   22.58012900
_cell_angle_alpha   90.00000000
_cell_angle_beta   90.00000000
_cell_angle_gamma   120.00000095
_symmetry_Int_Tables_number   1
_chemical_formula_structural   Ni
_chemical_formula_sum   Ni24
_cell_volume   1916.96696505
_cell_formula_units_Z   24
loop_
 _symmetry_equiv_pos_site_id
 _symmetry_equiv_pos_as_xyz
  1  'x, y, z'
loop_
 _atom_site_type_symbol
 _atom_site_label
 _atom_site_symmetry_multiplicity
 _atom_site_fract_x
 _atom_site_fract_y
 _atom_site_fract_z
 _atom_site_occupancy
  Ni  Ni0  1  0.85450700  0.68525700  0.32100900  1.0
  Ni  Ni1  1  0.80796400  0.70442000  0.98650400  1.0
  Ni  Ni2  1  0.81962600  0.59778100  0.62155600  1.0
  Ni  Ni3  1  0.89645600  0.19203700  0.31983700  1.0
  Ni  Ni4  1  0.65406000  0.35394100  0.18341500  1.0
  Ni  Ni5  1  0.69988100  0.34594000  0.51674800  1.0
  Ni  Ni6  1  0.64605900  0.30011900  0.85008200  1.0
  Ni  Ni7  1  0.83075000  0.14549300  0.65434200  1.0
  Ni  Ni8  1  0.77815500  0.18037400  0.95488900  1.0
  Ni  Ni9  1  0.40221900  0.22184500  0.28822300  1.0
  Ni  Ni10  1  0.70441900  0.89645500  0.15317100  1.0
  Ni  Ni11  1  0.68525700  0.83075000  0.48767600  1.0
  Ni  Ni12  1  0.31474300  0.16925000  0.98767600  1.0
  Ni  Ni13  1  0.29558100  0.10354500  0.65317100  1.0
  Ni  Ni14  1  0.59778100  0.77815500  0.78822300  1.0
  Ni  Ni15  1  0.22184500  0.81962600  0.45488900  1.0
  Ni  Ni16  1  0.16925000  0.85450700  0.15434200  1.0
  Ni  Ni17  1  0.35394100  0.69988100  0.35008200  1.0
  Ni  Ni18  1  0.30011900  0.65406000  0.01674800  1.0
  Ni  Ni19  1  0.34594000  0.64605900  0.68341500  1.0
  Ni  Ni20  1  0.10354400  0.80796300  0.81983700  1.0
  Ni  Ni21  1  0.18037400  0.40221900  0.12155600  1.0
  Ni  Ni22  1  0.19203600  0.29558000  0.48650400  1.0
  Ni  Ni23  1  0.14549300  0.31474300  0.82100900  1.0
