# generated using pymatgen
data_Ni
_symmetry_space_group_name_H-M   'P 1'
_cell_length_a   7.71743700
_cell_length_b   8.58613300
_cell_length_c   15.25126614
_cell_angle_alpha   92.07631668
_cell_angle_beta   90.00000000
_cell_angle_gamma   90.00000000
_symmetry_Int_Tables_number   1
_chemical_formula_structural   Ni
_chemical_formula_sum   Ni12
_cell_volume   1009.93024087
_cell_formula_units_Z   12
loop_
 _symmetry_equiv_pos_site_id
 _symmetry_equiv_pos_as_xyz
  1  'x, y, z'
loop_
 _atom_site_type_symbol
 _atom_site_label
 _atom_site_symmetry_multiplicity
 _atom_site_fract_x
 _atom_site_fract_y
 _atom_site_fract_z
 _atom_site_occupancy
  Ni  Ni0  1  0.76107400  0.46284800  0.58894500  1.0
  Ni  Ni1  1  0.73006800  0.40368500  0.22862800  1.0
  Ni  Ni2  1  0.77407500  0.37966000  0.92235300  1.0
  Ni  Ni3  1  0.27407500  0.12034000  0.57764700  1.0
  Ni  Ni4  1  0.23006800  0.09631500  0.27137200  1.0
  Ni  Ni5  1  0.26107400  0.03715200  0.91105500  1.0
  Ni  Ni6  1  0.73892600  0.96284800  0.08894500  1.0
  Ni  Ni7  1  0.76993200  0.90368500  0.72862800  1.0
  Ni  Ni8  1  0.72592500  0.87966000  0.42235300  1.0
  Ni  Ni9  1  0.22592500  0.62034000  0.07764700  1.0
  Ni  Ni10  1  0.26993200  0.59631500  0.77137200  1.0
  Ni  Ni11  1  0.23892600  0.53715200  0.41105500  1.0
