# generated using pymatgen
data_Ni
_symmetry_space_group_name_H-M   'P 1'
_cell_length_a   5.50131800
_cell_length_b   8.10896500
_cell_length_c   19.89832900
_cell_angle_alpha   90.00000000
_cell_angle_beta   90.00000000
_cell_angle_gamma   90.00000000
_symmetry_Int_Tables_number   1
_chemical_formula_structural   Ni
_chemical_formula_sum   Ni12
_cell_volume   887.66435950
_cell_formula_units_Z   12
loop_
 _symmetry_equiv_pos_site_id
 _symmetry_equiv_pos_as_xyz
  1  'x, y, z'
loop_
 _atom_site_type_symbol
 _atom_site_label
 _atom_site_symmetry_multiplicity
 _atom_site_fract_x
 _atom_site_fract_y
 _atom_site_fract_z
 _atom_site_occupancy
  Ni  Ni0  1  0.75254700  0.98327300  0.06231900  1.0
  Ni  Ni1  1  0.19070600  0.42276000  0.08922600  1.0
  Ni  Ni2  1  0.76401800  0.56084100  0.24098000  1.0
  Ni  Ni3  1  0.26401800  0.06084100  0.25902000  1.0
  Ni  Ni4  1  0.69070600  0.92276000  0.41077400  1.0
  Ni  Ni5  1  0.25254700  0.48327300  0.43768100  1.0
  Ni  Ni6  1  0.75254700  0.51672700  0.56231900  1.0
  Ni  Ni7  1  0.19070600  0.07724000  0.58922600  1.0
  Ni  Ni8  1  0.76401800  0.93915900  0.74098000  1.0
  Ni  Ni9  1  0.26401800  0.43915900  0.75902000  1.0
  Ni  Ni10  1  0.69070600  0.57724000  0.91077400  1.0
  Ni  Ni11  1  0.25254700  0.01672700  0.93768100  1.0
