# generated using pymatgen
data_Ni
_symmetry_space_group_name_H-M   'P 1'
_cell_length_a   4.78575700
_cell_length_b   7.36489700
_cell_length_c   17.63229608
_cell_angle_alpha   92.59848536
_cell_angle_beta   90.00000000
_cell_angle_gamma   90.00000000
_symmetry_Int_Tables_number   1
_chemical_formula_structural   Ni
_chemical_formula_sum   Ni8
_cell_volume   620.83959319
_cell_formula_units_Z   8
loop_
 _symmetry_equiv_pos_site_id
 _symmetry_equiv_pos_as_xyz
  1  'x, y, z'
loop_
 _atom_site_type_symbol
 _atom_site_label
 _atom_site_symmetry_multiplicity
 _atom_site_fract_x
 _atom_site_fract_y
 _atom_site_fract_z
 _atom_site_occupancy
  Ni  Ni0  1  0.28631600  0.95816600  0.60010300  1.0
  Ni  Ni1  1  0.21368400  0.95816600  0.10010300  1.0
  Ni  Ni2  1  0.65049400  0.50265200  0.82708500  1.0
  Ni  Ni3  1  0.84950600  0.50265200  0.32708500  1.0
  Ni  Ni4  1  0.15049400  0.49734800  0.67291500  1.0
  Ni  Ni5  1  0.34950600  0.49734800  0.17291500  1.0
  Ni  Ni6  1  0.78631600  0.04183400  0.89989700  1.0
  Ni  Ni7  1  0.71368400  0.04183400  0.39989700  1.0
