# generated using pymatgen
data_Ni
_symmetry_space_group_name_H-M   'P 1'
_cell_length_a   5.96650352
_cell_length_b   6.37648617
_cell_length_c   9.35475522
_cell_angle_alpha   73.91739462
_cell_angle_beta   84.31463682
_cell_angle_gamma   80.10125337
_symmetry_Int_Tables_number   1
_chemical_formula_structural   Ni
_chemical_formula_sum   Ni4
_cell_volume   336.38693329
_cell_formula_units_Z   4
loop_
 _symmetry_equiv_pos_site_id
 _symmetry_equiv_pos_as_xyz
  1  'x, y, z'
loop_
 _atom_site_type_symbol
 _atom_site_label
 _atom_site_symmetry_multiplicity
 _atom_site_fract_x
 _atom_site_fract_y
 _atom_site_fract_z
 _atom_site_occupancy
  Ni  Ni0  1  0.01360600  0.07683700  0.71554300  1.0
  Ni  Ni1  1  0.80462900  0.64506400  0.06694300  1.0
  Ni  Ni2  1  0.98638700  0.92325700  0.28425600  1.0
  Ni  Ni3  1  0.19557000  0.35447300  0.93328000  1.0
