# generated using pymatgen
data_Ni
_symmetry_space_group_name_H-M   'P 1'
_cell_length_a   4.83951800
_cell_length_b   7.98340200
_cell_length_c   16.71133700
_cell_angle_alpha   90.00000000
_cell_angle_beta   90.00000000
_cell_angle_gamma   90.00000000
_symmetry_Int_Tables_number   1
_chemical_formula_structural   Ni
_chemical_formula_sum   Ni8
_cell_volume   645.65616952
_cell_formula_units_Z   8
loop_
 _symmetry_equiv_pos_site_id
 _symmetry_equiv_pos_as_xyz
  1  'x, y, z'
loop_
 _atom_site_type_symbol
 _atom_site_label
 _atom_site_symmetry_multiplicity
 _atom_site_fract_x
 _atom_site_fract_y
 _atom_site_fract_z
 _atom_site_occupancy
  Ni  Ni0  1  0.27590900  0.35392900  0.55210600  1.0
  Ni  Ni1  1  0.27590900  0.85392900  0.94789400  1.0
  Ni  Ni2  1  0.42386100  0.91924100  0.71931000  1.0
  Ni  Ni3  1  0.42386100  0.41924100  0.78069000  1.0
  Ni  Ni4  1  0.77590900  0.14607100  0.05210600  1.0
  Ni  Ni5  1  0.77590900  0.64607100  0.44789400  1.0
  Ni  Ni6  1  0.92386100  0.08075900  0.28069000  1.0
  Ni  Ni7  1  0.92386100  0.58075900  0.21931000  1.0
