# generated using pymatgen
data_Ni
_symmetry_space_group_name_H-M   'P 1'
_cell_length_a   4.85470600
_cell_length_b   7.54752800
_cell_length_c   18.00687080
_cell_angle_alpha   91.08217865
_cell_angle_beta   90.00000000
_cell_angle_gamma   90.00000000
_symmetry_Int_Tables_number   1
_chemical_formula_structural   Ni
_chemical_formula_sum   Ni8
_cell_volume   659.67260006
_cell_formula_units_Z   8
loop_
 _symmetry_equiv_pos_site_id
 _symmetry_equiv_pos_as_xyz
  1  'x, y, z'
loop_
 _atom_site_type_symbol
 _atom_site_label
 _atom_site_symmetry_multiplicity
 _atom_site_fract_x
 _atom_site_fract_y
 _atom_site_fract_z
 _atom_site_occupancy
  Ni  Ni0  1  0.22408300  0.83538900  0.77140700  1.0
  Ni  Ni1  1  0.27591700  0.83538900  0.27140700  1.0
  Ni  Ni2  1  0.77246500  0.65046700  0.51501500  1.0
  Ni  Ni3  1  0.72753500  0.65046700  0.01501500  1.0
  Ni  Ni4  1  0.27246500  0.34953300  0.98498500  1.0
  Ni  Ni5  1  0.22753500  0.34953300  0.48498500  1.0
  Ni  Ni6  1  0.72408300  0.16461100  0.72859300  1.0
  Ni  Ni7  1  0.77591700  0.16461100  0.22859300  1.0
