# generated using pymatgen
data_Ni
_symmetry_space_group_name_H-M   'P 1'
_cell_length_a   5.06015300
_cell_length_b   13.29775000
_cell_length_c   17.57513737
_cell_angle_alpha   89.73123093
_cell_angle_beta   90.00000000
_cell_angle_gamma   90.00000000
_symmetry_Int_Tables_number   1
_chemical_formula_structural   Ni
_chemical_formula_sum   Ni16
_cell_volume   1182.59424801
_cell_formula_units_Z   16
loop_
 _symmetry_equiv_pos_site_id
 _symmetry_equiv_pos_as_xyz
  1  'x, y, z'
loop_
 _atom_site_type_symbol
 _atom_site_label
 _atom_site_symmetry_multiplicity
 _atom_site_fract_x
 _atom_site_fract_y
 _atom_site_fract_z
 _atom_site_occupancy
  Ni  Ni0  1  0.75145200  0.00359100  0.87446100  1.0
  Ni  Ni1  1  0.23907200  0.00870300  0.62293100  1.0
  Ni  Ni2  1  0.25645000  0.10850800  0.80860300  1.0
  Ni  Ni3  1  0.70058200  0.10961500  0.54407900  1.0
  Ni  Ni4  1  0.20058200  0.39038500  0.95592100  1.0
  Ni  Ni5  1  0.75645000  0.39149200  0.69139700  1.0
  Ni  Ni6  1  0.73907200  0.49129700  0.87706900  1.0
  Ni  Ni7  1  0.25145200  0.49640900  0.62553900  1.0
  Ni  Ni8  1  0.74854800  0.50359100  0.37446100  1.0
  Ni  Ni9  1  0.26092800  0.50870300  0.12293100  1.0
  Ni  Ni10  1  0.24355000  0.60850800  0.30860300  1.0
  Ni  Ni11  1  0.79941800  0.60961500  0.04407900  1.0
  Ni  Ni12  1  0.29941800  0.89038500  0.45592100  1.0
  Ni  Ni13  1  0.74355000  0.89149200  0.19139700  1.0
  Ni  Ni14  1  0.76092800  0.99129700  0.37706900  1.0
  Ni  Ni15  1  0.24854800  0.99640900  0.12553900  1.0
