# generated using pymatgen
data_Ni
_symmetry_space_group_name_H-M   'P 1'
_cell_length_a   4.28775106
_cell_length_b   4.76561006
_cell_length_c   14.29166300
_cell_angle_alpha   89.99989578
_cell_angle_beta   89.99999999
_cell_angle_gamma   89.98168255
_symmetry_Int_Tables_number   1
_chemical_formula_structural   Ni
_chemical_formula_sum   Ni4
_cell_volume   292.03224799
_cell_formula_units_Z   4
loop_
 _symmetry_equiv_pos_site_id
 _symmetry_equiv_pos_as_xyz
  1  'x, y, z'
loop_
 _atom_site_type_symbol
 _atom_site_label
 _atom_site_symmetry_multiplicity
 _atom_site_fract_x
 _atom_site_fract_y
 _atom_site_fract_z
 _atom_site_occupancy
  Ni  Ni0  1  0.49999900  0.25000100  0.56308100  1.0
  Ni  Ni1  1  0.50000000  0.74999000  0.43692200  1.0
  Ni  Ni2  1  0.99997800  0.75000400  0.93670300  1.0
  Ni  Ni3  1  0.99997900  0.25003000  0.06329900  1.0
