# generated using pymatgen
data_Ni
_symmetry_space_group_name_H-M   'P 1'
_cell_length_a   7.39177600
_cell_length_b   7.39177531
_cell_length_c   9.46528600
_cell_angle_alpha   90.00000000
_cell_angle_beta   90.00000000
_cell_angle_gamma   120.00000308
_symmetry_Int_Tables_number   1
_chemical_formula_structural   Ni
_chemical_formula_sum   Ni6
_cell_volume   447.88025182
_cell_formula_units_Z   6
loop_
 _symmetry_equiv_pos_site_id
 _symmetry_equiv_pos_as_xyz
  1  'x, y, z'
loop_
 _atom_site_type_symbol
 _atom_site_label
 _atom_site_symmetry_multiplicity
 _atom_site_fract_x
 _atom_site_fract_y
 _atom_site_fract_z
 _atom_site_occupancy
  Ni  Ni0  1  0.93751200  0.52982100  0.52445600  1.0
  Ni  Ni1  1  0.47018000  0.40769200  0.52445600  1.0
  Ni  Ni2  1  0.59230900  0.06248900  0.52445600  1.0
  Ni  Ni3  1  0.52982000  0.93751100  0.02445600  1.0
  Ni  Ni4  1  0.40769100  0.47017900  0.02445600  1.0
  Ni  Ni5  1  0.06248800  0.59230800  0.02445600  1.0
