# generated using pymatgen
data_Ni
_symmetry_space_group_name_H-M   'P 1'
_cell_length_a   5.00599100
_cell_length_b   8.11732300
_cell_length_c   9.14311886
_cell_angle_alpha   90.00000000
_cell_angle_beta   90.88791119
_cell_angle_gamma   90.00000000
_symmetry_Int_Tables_number   1
_chemical_formula_structural   Ni
_chemical_formula_sum   Ni4
_cell_volume   371.48827112
_cell_formula_units_Z   4
loop_
 _symmetry_equiv_pos_site_id
 _symmetry_equiv_pos_as_xyz
  1  'x, y, z'
loop_
 _atom_site_type_symbol
 _atom_site_label
 _atom_site_symmetry_multiplicity
 _atom_site_fract_x
 _atom_site_fract_y
 _atom_site_fract_z
 _atom_site_occupancy
  Ni  Ni0  1  0.25277800  0.67176700  0.58424700  1.0
  Ni  Ni1  1  0.24722200  0.17176700  0.91575300  1.0
  Ni  Ni2  1  0.75277800  0.82823300  0.08424700  1.0
  Ni  Ni3  1  0.74722200  0.32823300  0.41575300  1.0
