# generated using pymatgen
data_Ni
_symmetry_space_group_name_H-M   'P 1'
_cell_length_a   5.22958604
_cell_length_b   7.93091129
_cell_length_c   8.47754759
_cell_angle_alpha   104.57737664
_cell_angle_beta   89.98893711
_cell_angle_gamma   89.99450448
_symmetry_Int_Tables_number   1
_chemical_formula_structural   Ni
_chemical_formula_sum   Ni4
_cell_volume   340.29072851
_cell_formula_units_Z   4
loop_
 _symmetry_equiv_pos_site_id
 _symmetry_equiv_pos_as_xyz
  1  'x, y, z'
loop_
 _atom_site_type_symbol
 _atom_site_label
 _atom_site_symmetry_multiplicity
 _atom_site_fract_x
 _atom_site_fract_y
 _atom_site_fract_z
 _atom_site_occupancy
  Ni  Ni0  1  0.16751200  0.95356900  0.55223100  1.0
  Ni  Ni1  1  0.32298300  0.48963100  0.26684200  1.0
  Ni  Ni2  1  0.83233200  0.95372400  0.05229800  1.0
  Ni  Ni3  1  0.67727800  0.48931600  0.76663400  1.0
