# generated using pymatgen
data_Ni
_symmetry_space_group_name_H-M   'P 1'
_cell_length_a   4.92084900
_cell_length_b   5.98041604
_cell_length_c   11.33804106
_cell_angle_alpha   90.01226115
_cell_angle_beta   89.99966858
_cell_angle_gamma   90.00336510
_symmetry_Int_Tables_number   1
_chemical_formula_structural   Ni
_chemical_formula_sum   Ni4
_cell_volume   333.66407612
_cell_formula_units_Z   4
loop_
 _symmetry_equiv_pos_site_id
 _symmetry_equiv_pos_as_xyz
  1  'x, y, z'
loop_
 _atom_site_type_symbol
 _atom_site_label
 _atom_site_symmetry_multiplicity
 _atom_site_fract_x
 _atom_site_fract_y
 _atom_site_fract_z
 _atom_site_occupancy
  Ni  Ni0  1  0.51484300  0.95261700  0.33185000  1.0
  Ni  Ni1  1  0.01491000  0.45265200  0.16811700  1.0
  Ni  Ni2  1  0.51479400  0.54731100  0.83189000  1.0
  Ni  Ni3  1  0.01478800  0.04736300  0.66813800  1.0
