# generated using pymatgen
data_Ni
_symmetry_space_group_name_H-M   'P 1'
_cell_length_a   5.16552716
_cell_length_b   7.58408542
_cell_length_c   8.05516851
_cell_angle_alpha   87.64551955
_cell_angle_beta   89.72811056
_cell_angle_gamma   78.08564319
_symmetry_Int_Tables_number   1
_chemical_formula_structural   Ni
_chemical_formula_sum   Ni4
_cell_volume   308.50655906
_cell_formula_units_Z   4
loop_
 _symmetry_equiv_pos_site_id
 _symmetry_equiv_pos_as_xyz
  1  'x, y, z'
loop_
 _atom_site_type_symbol
 _atom_site_label
 _atom_site_symmetry_multiplicity
 _atom_site_fract_x
 _atom_site_fract_y
 _atom_site_fract_z
 _atom_site_occupancy
  Ni  Ni0  1  0.86459400  0.05557400  0.31357100  1.0
  Ni  Ni1  1  0.80074400  0.52342100  0.21117900  1.0
  Ni  Ni2  1  0.19927400  0.47656900  0.78881500  1.0
  Ni  Ni3  1  0.13541800  0.94443200  0.68644200  1.0
