# generated using pymatgen
data_Ni
_symmetry_space_group_name_H-M   'P 1'
_cell_length_a   5.01663700
_cell_length_b   6.29224900
_cell_length_c   10.99197000
_cell_angle_alpha   90.00000000
_cell_angle_beta   90.00000000
_cell_angle_gamma   90.00000000
_symmetry_Int_Tables_number   1
_chemical_formula_structural   Ni
_chemical_formula_sum   Ni4
_cell_volume   346.97174620
_cell_formula_units_Z   4
loop_
 _symmetry_equiv_pos_site_id
 _symmetry_equiv_pos_as_xyz
  1  'x, y, z'
loop_
 _atom_site_type_symbol
 _atom_site_label
 _atom_site_symmetry_multiplicity
 _atom_site_fract_x
 _atom_site_fract_y
 _atom_site_fract_z
 _atom_site_occupancy
  Ni  Ni0  1  0.74050500  0.27982500  0.08098900  1.0
  Ni  Ni1  1  0.24050500  0.77982500  0.41901100  1.0
  Ni  Ni2  1  0.74050500  0.22017500  0.58098900  1.0
  Ni  Ni3  1  0.24050500  0.72017500  0.91901100  1.0
