# generated using pymatgen
data_Ni
_symmetry_space_group_name_H-M   'P 1'
_cell_length_a   4.91855200
_cell_length_b   7.01701709
_cell_length_c   9.94973314
_cell_angle_alpha   89.98135758
_cell_angle_beta   90.00259972
_cell_angle_gamma   89.99728773
_symmetry_Int_Tables_number   1
_chemical_formula_structural   Ni
_chemical_formula_sum   Ni4
_cell_volume   343.40072704
_cell_formula_units_Z   4
loop_
 _symmetry_equiv_pos_site_id
 _symmetry_equiv_pos_as_xyz
  1  'x, y, z'
loop_
 _atom_site_type_symbol
 _atom_site_label
 _atom_site_symmetry_multiplicity
 _atom_site_fract_x
 _atom_site_fract_y
 _atom_site_fract_z
 _atom_site_occupancy
  Ni  Ni0  1  0.79835400  0.28752400  0.64831300  1.0
  Ni  Ni1  1  0.29869600  0.78759900  0.85192200  1.0
  Ni  Ni2  1  0.70162500  0.28763200  0.14807000  1.0
  Ni  Ni3  1  0.20135900  0.78755800  0.35171200  1.0
