# generated using pymatgen
data_Ni
_symmetry_space_group_name_H-M   'P 1'
_cell_length_a   9.89422800
_cell_length_b   9.93382141
_cell_length_c   16.51550287
_cell_angle_alpha   99.10807747
_cell_angle_beta   90.00000000
_cell_angle_gamma   119.86824086
_symmetry_Int_Tables_number   1
_chemical_formula_structural   Ni
_chemical_formula_sum   Ni16
_cell_volume   1384.00168004
_cell_formula_units_Z   16
loop_
 _symmetry_equiv_pos_site_id
 _symmetry_equiv_pos_as_xyz
  1  'x, y, z'
loop_
 _atom_site_type_symbol
 _atom_site_label
 _atom_site_symmetry_multiplicity
 _atom_site_fract_x
 _atom_site_fract_y
 _atom_site_fract_z
 _atom_site_occupancy
  Ni  Ni0  1  0.79609300  0.98863300  0.00347000  1.0
  Ni  Ni1  1  0.19254000  0.98863300  0.50347000  1.0
  Ni  Ni2  1  0.29955300  0.70986400  0.24688900  1.0
  Ni  Ni3  1  0.75554900  0.66776500  0.24613400  1.0
  Ni  Ni4  1  0.85500800  0.54750300  0.00174400  1.0
  Ni  Ni5  1  0.29780800  0.49297100  0.00548400  1.0
  Ni  Ni6  1  0.41031100  0.70986400  0.74688900  1.0
  Ni  Ni7  1  0.91221600  0.66776500  0.74613400  1.0
  Ni  Ni8  1  0.69249500  0.54750300  0.50174400  1.0
  Ni  Ni9  1  0.19516300  0.49297100  0.50548400  1.0
  Ni  Ni10  1  0.81462400  0.24966200  0.25708000  1.0
  Ni  Ni11  1  0.25473500  0.15959500  0.24812600  1.0
  Ni  Ni12  1  0.34664100  0.04515700  0.00756000  1.0
  Ni  Ni13  1  0.43503800  0.24966200  0.75708000  1.0
  Ni  Ni14  1  0.90486000  0.15959500  0.74812600  1.0
  Ni  Ni15  1  0.69851600  0.04515700  0.50756000  1.0
