# generated using pymatgen
data_Ni
_symmetry_space_group_name_H-M   'P 1'
_cell_length_a   4.88639400
_cell_length_b   6.30512000
_cell_length_c   9.02897700
_cell_angle_alpha   90.00033389
_cell_angle_beta   89.99960933
_cell_angle_gamma   89.99927947
_symmetry_Int_Tables_number   1
_chemical_formula_structural   Ni
_chemical_formula_sum   Ni4
_cell_volume   278.17646590
_cell_formula_units_Z   4
loop_
 _symmetry_equiv_pos_site_id
 _symmetry_equiv_pos_as_xyz
  1  'x, y, z'
loop_
 _atom_site_type_symbol
 _atom_site_label
 _atom_site_symmetry_multiplicity
 _atom_site_fract_x
 _atom_site_fract_y
 _atom_site_fract_z
 _atom_site_occupancy
  Ni  Ni0  1  0.00004600  0.50031200  0.00006400  1.0
  Ni  Ni1  1  0.50039800  0.49978100  0.50021600  1.0
  Ni  Ni2  1  0.99987000  0.00005600  0.99982000  1.0
  Ni  Ni3  1  0.50004700  0.99989900  0.49991600  1.0
