# generated using pymatgen
data_Ni
_symmetry_space_group_name_H-M   'P 1'
_cell_length_a   5.43753566
_cell_length_b   5.43753429
_cell_length_c   6.22582687
_cell_angle_alpha   76.57988726
_cell_angle_beta   76.57979853
_cell_angle_gamma   117.94103516
_symmetry_Int_Tables_number   1
_chemical_formula_structural   Ni
_chemical_formula_sum   Ni2
_cell_volume   145.20432828
_cell_formula_units_Z   2
loop_
 _symmetry_equiv_pos_site_id
 _symmetry_equiv_pos_as_xyz
  1  'x, y, z'
loop_
 _atom_site_type_symbol
 _atom_site_label
 _atom_site_symmetry_multiplicity
 _atom_site_fract_x
 _atom_site_fract_y
 _atom_site_fract_z
 _atom_site_occupancy
  Ni  Ni0  1  0.43697400  0.06303700  0.75000300  1.0
  Ni  Ni1  1  0.18696900  0.31302500  0.25000100  1.0
