# generated using pymatgen
data_Ni
_symmetry_space_group_name_H-M   'P 1'
_cell_length_a   5.75278500
_cell_length_b   7.46736300
_cell_length_c   13.95621600
_cell_angle_alpha   90.00000000
_cell_angle_beta   90.00000000
_cell_angle_gamma   90.00000000
_symmetry_Int_Tables_number   1
_chemical_formula_structural   Ni
_chemical_formula_sum   Ni8
_cell_volume   599.53299505
_cell_formula_units_Z   8
loop_
 _symmetry_equiv_pos_site_id
 _symmetry_equiv_pos_as_xyz
  1  'x, y, z'
loop_
 _atom_site_type_symbol
 _atom_site_label
 _atom_site_symmetry_multiplicity
 _atom_site_fract_x
 _atom_site_fract_y
 _atom_site_fract_z
 _atom_site_occupancy
  Ni  Ni0  1  0.40088600  0.17923800  0.03353400  1.0
  Ni  Ni1  1  0.90088600  0.17923800  0.46646600  1.0
  Ni  Ni2  1  0.40088600  0.32076200  0.53353400  1.0
  Ni  Ni3  1  0.90088600  0.32076200  0.96646600  1.0
  Ni  Ni4  1  0.09911400  0.67923800  0.03353400  1.0
  Ni  Ni5  1  0.59911400  0.67923800  0.46646600  1.0
  Ni  Ni6  1  0.09911400  0.82076200  0.53353400  1.0
  Ni  Ni7  1  0.59911400  0.82076200  0.96646600  1.0
