# generated using pymatgen
data_Ni
_symmetry_space_group_name_H-M   'P 1'
_cell_length_a   5.65493800
_cell_length_b   5.65496000
_cell_length_c   7.99006700
_cell_angle_alpha   89.99996836
_cell_angle_beta   89.99999283
_cell_angle_gamma   90.00000000
_symmetry_Int_Tables_number   1
_chemical_formula_structural   Ni
_chemical_formula_sum   Ni4
_cell_volume   255.50994361
_cell_formula_units_Z   4
loop_
 _symmetry_equiv_pos_site_id
 _symmetry_equiv_pos_as_xyz
  1  'x, y, z'
loop_
 _atom_site_type_symbol
 _atom_site_label
 _atom_site_symmetry_multiplicity
 _atom_site_fract_x
 _atom_site_fract_y
 _atom_site_fract_z
 _atom_site_occupancy
  Ni  Ni0  1  0.23795200  0.50000500  0.25000000  1.0
  Ni  Ni1  1  0.50000300  0.23794600  0.99999400  1.0
  Ni  Ni2  1  0.49999800  0.76205600  0.49999800  1.0
  Ni  Ni3  1  0.76205300  0.50000300  0.75000300  1.0
