# generated using pymatgen
data_Ni
_symmetry_space_group_name_H-M   'P 1'
_cell_length_a   5.61976000
_cell_length_b   9.95603409
_cell_length_c   10.55372000
_cell_angle_alpha   90.00000000
_cell_angle_beta   90.00000000
_cell_angle_gamma   91.77423675
_symmetry_Int_Tables_number   1
_chemical_formula_structural   Ni
_chemical_formula_sum   Ni8
_cell_volume   590.20305556
_cell_formula_units_Z   8
loop_
 _symmetry_equiv_pos_site_id
 _symmetry_equiv_pos_as_xyz
  1  'x, y, z'
loop_
 _atom_site_type_symbol
 _atom_site_label
 _atom_site_symmetry_multiplicity
 _atom_site_fract_x
 _atom_site_fract_y
 _atom_site_fract_z
 _atom_site_occupancy
  Ni  Ni0  1  0.11994900  0.73152100  0.90727500  1.0
  Ni  Ni1  1  0.11994900  0.23152100  0.59272500  1.0
  Ni  Ni2  1  0.34617600  0.98573600  0.37667300  1.0
  Ni  Ni3  1  0.34617600  0.48573600  0.12332700  1.0
  Ni  Ni4  1  0.65382400  0.51426400  0.87667300  1.0
  Ni  Ni5  1  0.65382400  0.01426400  0.62332700  1.0
  Ni  Ni6  1  0.88005100  0.76847900  0.40727500  1.0
  Ni  Ni7  1  0.88005100  0.26847900  0.09272500  1.0
