# generated using pymatgen
data_Ni
_symmetry_space_group_name_H-M   'P 1'
_cell_length_a   6.14461000
_cell_length_b   7.41324400
_cell_length_c   13.44958200
_cell_angle_alpha   90.00000000
_cell_angle_beta   90.00000000
_cell_angle_gamma   90.00000000
_symmetry_Int_Tables_number   1
_chemical_formula_structural   Ni
_chemical_formula_sum   Ni8
_cell_volume   612.64854322
_cell_formula_units_Z   8
loop_
 _symmetry_equiv_pos_site_id
 _symmetry_equiv_pos_as_xyz
  1  'x, y, z'
loop_
 _atom_site_type_symbol
 _atom_site_label
 _atom_site_symmetry_multiplicity
 _atom_site_fract_x
 _atom_site_fract_y
 _atom_site_fract_z
 _atom_site_occupancy
  Ni  Ni0  1  0.21213300  0.18650000  0.71467100  1.0
  Ni  Ni1  1  0.71213300  0.18650000  0.78532900  1.0
  Ni  Ni2  1  0.71213300  0.31350000  0.28532900  1.0
  Ni  Ni3  1  0.21213300  0.31350000  0.21467100  1.0
  Ni  Ni4  1  0.28786700  0.68650000  0.71467100  1.0
  Ni  Ni5  1  0.78786700  0.68650000  0.78532900  1.0
  Ni  Ni6  1  0.28786700  0.81350000  0.21467100  1.0
  Ni  Ni7  1  0.78786700  0.81350000  0.28532900  1.0
