# generated using pymatgen
data_Ni
_symmetry_space_group_name_H-M   'P 1'
_cell_length_a   4.83326000
_cell_length_b   6.39743800
_cell_length_c   9.86315100
_cell_angle_alpha   90.00000000
_cell_angle_beta   90.00000000
_cell_angle_gamma   90.00000000
_symmetry_Int_Tables_number   1
_chemical_formula_structural   Ni
_chemical_formula_sum   Ni4
_cell_volume   304.97337495
_cell_formula_units_Z   4
loop_
 _symmetry_equiv_pos_site_id
 _symmetry_equiv_pos_as_xyz
  1  'x, y, z'
loop_
 _atom_site_type_symbol
 _atom_site_label
 _atom_site_symmetry_multiplicity
 _atom_site_fract_x
 _atom_site_fract_y
 _atom_site_fract_z
 _atom_site_occupancy
  Ni  Ni0  1  0.98225000  0.04224600  0.02143900  1.0
  Ni  Ni1  1  0.01775000  0.54224600  0.47856100  1.0
  Ni  Ni2  1  0.51775000  0.95775400  0.52143900  1.0
  Ni  Ni3  1  0.48225000  0.45775400  0.97856100  1.0
