# generated using pymatgen
data_Ni
_symmetry_space_group_name_H-M   'P 1'
_cell_length_a   4.94453100
_cell_length_b   8.14134500
_cell_length_c   17.97535100
_cell_angle_alpha   90.00000000
_cell_angle_beta   90.00000000
_cell_angle_gamma   90.00000000
_symmetry_Int_Tables_number   1
_chemical_formula_structural   Ni
_chemical_formula_sum   Ni8
_cell_volume   723.60014045
_cell_formula_units_Z   8
loop_
 _symmetry_equiv_pos_site_id
 _symmetry_equiv_pos_as_xyz
  1  'x, y, z'
loop_
 _atom_site_type_symbol
 _atom_site_label
 _atom_site_symmetry_multiplicity
 _atom_site_fract_x
 _atom_site_fract_y
 _atom_site_fract_z
 _atom_site_occupancy
  Ni  Ni0  1  0.96806500  0.51108800  0.43180100  1.0
  Ni  Ni1  1  0.47347500  0.65082300  0.84642200  1.0
  Ni  Ni2  1  0.97347500  0.84917700  0.34642200  1.0
  Ni  Ni3  1  0.46806500  0.98891200  0.93180100  1.0
  Ni  Ni4  1  0.96806500  0.01108800  0.06819900  1.0
  Ni  Ni5  1  0.47347500  0.15082300  0.65357800  1.0
  Ni  Ni6  1  0.97347500  0.34917700  0.15357800  1.0
  Ni  Ni7  1  0.46806500  0.48891200  0.56819900  1.0
