# generated using pymatgen
data_Ni
_symmetry_space_group_name_H-M   'P 1'
_cell_length_a   4.84869433
_cell_length_b   4.84869673
_cell_length_c   16.14872582
_cell_angle_alpha   96.40404839
_cell_angle_beta   96.40397085
_cell_angle_gamma   102.09031815
_symmetry_Int_Tables_number   1
_chemical_formula_structural   Ni
_chemical_formula_sum   Ni4
_cell_volume   365.34405504
_cell_formula_units_Z   4
loop_
 _symmetry_equiv_pos_site_id
 _symmetry_equiv_pos_as_xyz
  1  'x, y, z'
loop_
 _atom_site_type_symbol
 _atom_site_label
 _atom_site_symmetry_multiplicity
 _atom_site_fract_x
 _atom_site_fract_y
 _atom_site_fract_z
 _atom_site_occupancy
  Ni  Ni0  1  0.67553300  0.83092800  0.25064800  1.0
  Ni  Ni1  1  0.16907300  0.32446600  0.24935200  1.0
  Ni  Ni2  1  0.83095800  0.67564400  0.75065800  1.0
  Ni  Ni3  1  0.32435800  0.16904300  0.74934200  1.0
