# generated using pymatgen
data_Ni
_symmetry_space_group_name_H-M   'P 1'
_cell_length_a   9.64312200
_cell_length_b   9.64312146
_cell_length_c   22.66705400
_cell_angle_alpha   90.00000000
_cell_angle_beta   90.00000000
_cell_angle_gamma   120.00000186
_symmetry_Int_Tables_number   1
_chemical_formula_structural   Ni
_chemical_formula_sum   Ni24
_cell_volume   1825.41241988
_cell_formula_units_Z   24
loop_
 _symmetry_equiv_pos_site_id
 _symmetry_equiv_pos_as_xyz
  1  'x, y, z'
loop_
 _atom_site_type_symbol
 _atom_site_label
 _atom_site_symmetry_multiplicity
 _atom_site_fract_x
 _atom_site_fract_y
 _atom_site_fract_z
 _atom_site_occupancy
  Ni  Ni0  1  0.00725500  0.03044100  0.28639500  1.0
  Ni  Ni1  1  0.97863500  0.54456700  0.95451100  1.0
  Ni  Ni2  1  0.94897100  0.41174700  0.80756700  1.0
  Ni  Ni3  1  0.94248200  0.44036600  0.14846100  1.0
  Ni  Ni4  1  0.58825300  0.53722400  0.14090000  1.0
  Ni  Ni5  1  0.55963400  0.50211600  0.48179500  1.0
  Ni  Ni6  1  0.02318600  0.99274600  0.95306100  1.0
  Ni  Ni7  1  0.03044000  0.02318500  0.11972800  1.0
  Ni  Ni8  1  0.45543300  0.43406800  0.28784400  1.0
  Ni  Ni9  1  0.56593200  0.02136500  0.62117800  1.0
  Ni  Ni10  1  0.49788400  0.05751800  0.81512800  1.0
  Ni  Ni11  1  0.46277600  0.05102900  0.47423300  1.0
  Ni  Ni12  1  0.53722400  0.94897100  0.97423300  1.0
  Ni  Ni13  1  0.50211600  0.94248200  0.31512800  1.0
  Ni  Ni14  1  0.43406800  0.97863500  0.12117800  1.0
  Ni  Ni15  1  0.54456700  0.56593200  0.78784400  1.0
  Ni  Ni16  1  0.96956000  0.97681500  0.61972800  1.0
  Ni  Ni17  1  0.97681400  0.00725400  0.45306100  1.0
  Ni  Ni18  1  0.44036600  0.49788400  0.98179500  1.0
  Ni  Ni19  1  0.41174700  0.46277600  0.64090000  1.0
  Ni  Ni20  1  0.05751800  0.55963400  0.64846100  1.0
  Ni  Ni21  1  0.05102900  0.58825300  0.30756700  1.0
  Ni  Ni22  1  0.02136500  0.45543300  0.45451100  1.0
  Ni  Ni23  1  0.99274500  0.96955900  0.78639500  1.0
