# generated using pymatgen
data_Ni
_symmetry_space_group_name_H-M   'P 1'
_cell_length_a   5.00561200
_cell_length_b   8.29652844
_cell_length_c   8.90052235
_cell_angle_alpha   71.38105784
_cell_angle_beta   89.99751925
_cell_angle_gamma   89.99936890
_symmetry_Int_Tables_number   1
_chemical_formula_structural   Ni
_chemical_formula_sum   Ni4
_cell_volume   350.28615084
_cell_formula_units_Z   4
loop_
 _symmetry_equiv_pos_site_id
 _symmetry_equiv_pos_as_xyz
  1  'x, y, z'
loop_
 _atom_site_type_symbol
 _atom_site_label
 _atom_site_symmetry_multiplicity
 _atom_site_fract_x
 _atom_site_fract_y
 _atom_site_fract_z
 _atom_site_occupancy
  Ni  Ni0  1  0.81569300  0.33648700  0.26754400  1.0
  Ni  Ni1  1  0.18446500  0.83665100  0.26739900  1.0
  Ni  Ni2  1  0.65797200  0.97526300  0.76527100  1.0
  Ni  Ni3  1  0.34187300  0.47556800  0.76495600  1.0
