# generated using pymatgen
data_Ni
_symmetry_space_group_name_H-M   'P 1'
_cell_length_a   5.94769700
_cell_length_b   10.02602963
_cell_length_c   10.06334100
_cell_angle_alpha   90.00000000
_cell_angle_beta   90.00000000
_cell_angle_gamma   94.16863220
_symmetry_Int_Tables_number   1
_chemical_formula_structural   Ni
_chemical_formula_sum   Ni8
_cell_volume   598.50740332
_cell_formula_units_Z   8
loop_
 _symmetry_equiv_pos_site_id
 _symmetry_equiv_pos_as_xyz
  1  'x, y, z'
loop_
 _atom_site_type_symbol
 _atom_site_label
 _atom_site_symmetry_multiplicity
 _atom_site_fract_x
 _atom_site_fract_y
 _atom_site_fract_z
 _atom_site_occupancy
  Ni  Ni0  1  0.11707500  0.86789800  0.83152900  1.0
  Ni  Ni1  1  0.11707500  0.36789800  0.66847100  1.0
  Ni  Ni2  1  0.38131000  0.63124400  0.29133900  1.0
  Ni  Ni3  1  0.38131000  0.13124400  0.20866100  1.0
  Ni  Ni4  1  0.61869000  0.86875600  0.79133900  1.0
  Ni  Ni5  1  0.61869000  0.36875600  0.70866100  1.0
  Ni  Ni6  1  0.88292500  0.63210200  0.33152900  1.0
  Ni  Ni7  1  0.88292500  0.13210200  0.16847100  1.0
