# generated using pymatgen
data_Ni
_symmetry_space_group_name_H-M   'P 1'
_cell_length_a   4.84399400
_cell_length_b   4.84405090
_cell_length_c   8.32639159
_cell_angle_alpha   73.09128820
_cell_angle_beta   73.09065133
_cell_angle_gamma   60.00533148
_symmetry_Int_Tables_number   1
_chemical_formula_structural   Ni
_chemical_formula_sum   Ni2
_cell_volume   159.38001054
_cell_formula_units_Z   2
loop_
 _symmetry_equiv_pos_site_id
 _symmetry_equiv_pos_as_xyz
  1  'x, y, z'
loop_
 _atom_site_type_symbol
 _atom_site_label
 _atom_site_symmetry_multiplicity
 _atom_site_fract_x
 _atom_site_fract_y
 _atom_site_fract_z
 _atom_site_occupancy
  Ni  Ni0  1  0.87367900  0.87375600  0.37911500  1.0
  Ni  Ni1  1  0.55076400  0.55064500  0.34752500  1.0
