# generated using pymatgen
data_Ni
_symmetry_space_group_name_H-M   'P 1'
_cell_length_a   5.22103000
_cell_length_b   7.50877354
_cell_length_c   8.63898682
_cell_angle_alpha   100.51096947
_cell_angle_beta   92.41153144
_cell_angle_gamma   97.48148891
_symmetry_Int_Tables_number   1
_chemical_formula_structural   Ni
_chemical_formula_sum   Ni4
_cell_volume   329.40733979
_cell_formula_units_Z   4
loop_
 _symmetry_equiv_pos_site_id
 _symmetry_equiv_pos_as_xyz
  1  'x, y, z'
loop_
 _atom_site_type_symbol
 _atom_site_label
 _atom_site_symmetry_multiplicity
 _atom_site_fract_x
 _atom_site_fract_y
 _atom_site_fract_z
 _atom_site_occupancy
  Ni  Ni0  1  0.28831000  0.79887600  0.89328300  1.0
  Ni  Ni1  1  0.28175700  0.36918100  0.58491000  1.0
  Ni  Ni2  1  0.71137200  0.20098900  0.10669100  1.0
  Ni  Ni3  1  0.71841300  0.63045700  0.41508700  1.0
