# generated using pymatgen
data_Ni
_symmetry_space_group_name_H-M   'P 1'
_cell_length_a   9.93612200
_cell_length_b   9.96174995
_cell_length_c   17.23171149
_cell_angle_alpha   73.35805303
_cell_angle_beta   73.24324251
_cell_angle_gamma   60.08506567
_symmetry_Int_Tables_number   1
_chemical_formula_structural   Ni
_chemical_formula_sum   Ni16
_cell_volume   1394.54194238
_cell_formula_units_Z   16
loop_
 _symmetry_equiv_pos_site_id
 _symmetry_equiv_pos_as_xyz
  1  'x, y, z'
loop_
 _atom_site_type_symbol
 _atom_site_label
 _atom_site_symmetry_multiplicity
 _atom_site_fract_x
 _atom_site_fract_y
 _atom_site_fract_z
 _atom_site_occupancy
  Ni  Ni0  1  0.12749900  0.67395800  0.43956300  1.0
  Ni  Ni1  1  0.18089800  0.11908600  0.43837100  1.0
  Ni  Ni2  1  0.76634100  0.67007700  0.93938900  1.0
  Ni  Ni3  1  0.49951900  0.94343800  0.68523900  1.0
  Ni  Ni4  1  0.68158000  0.61864400  0.43973500  1.0
  Ni  Ni5  1  0.26164500  0.61908600  0.93837100  1.0
  Ni  Ni6  1  0.99848600  0.45039800  0.68437300  1.0
  Ni  Ni7  1  0.75898000  0.17395800  0.93956300  1.0
  Ni  Ni8  1  0.45149100  0.49422300  0.68414700  1.0
  Ni  Ni9  1  0.86674300  0.95039800  0.18437300  1.0
  Ni  Ni10  1  0.62419300  0.17007700  0.43938900  1.0
  Ni  Ni11  1  0.36916200  0.49787800  0.18620800  1.0
  Ni  Ni12  1  0.94675200  0.99787800  0.68620800  1.0
  Ni  Ni13  1  0.87180400  0.44343800  0.18523900  1.0
  Ni  Ni14  1  0.37013900  0.99422300  0.18414700  1.0
  Ni  Ni15  1  0.26004100  0.11864400  0.93973500  1.0
