# generated using pymatgen
data_Ni
_symmetry_space_group_name_H-M   'P 1'
_cell_length_a   4.93199240
_cell_length_b   4.93206987
_cell_length_c   6.19438800
_cell_angle_alpha   90.00004886
_cell_angle_beta   89.99998892
_cell_angle_gamma   113.24681557
_symmetry_Int_Tables_number   1
_chemical_formula_structural   Ni
_chemical_formula_sum   Ni2
_cell_volume   138.44498407
_cell_formula_units_Z   2
loop_
 _symmetry_equiv_pos_site_id
 _symmetry_equiv_pos_as_xyz
  1  'x, y, z'
loop_
 _atom_site_type_symbol
 _atom_site_label
 _atom_site_symmetry_multiplicity
 _atom_site_fract_x
 _atom_site_fract_y
 _atom_site_fract_z
 _atom_site_occupancy
  Ni  Ni0  1  0.51409400  0.01414200  0.99998750  1.0
  Ni  Ni1  1  0.51411300  0.01418500  0.50000000  1.0
