# generated using pymatgen
data_Ni
_symmetry_space_group_name_H-M   'P 1'
_cell_length_a   4.95115424
_cell_length_b   6.96686425
_cell_length_c   9.93418945
_cell_angle_alpha   89.97926142
_cell_angle_beta   89.97723474
_cell_angle_gamma   91.03655351
_symmetry_Int_Tables_number   1
_chemical_formula_structural   Ni
_chemical_formula_sum   Ni4
_cell_volume   342.61399849
_cell_formula_units_Z   4
loop_
 _symmetry_equiv_pos_site_id
 _symmetry_equiv_pos_as_xyz
  1  'x, y, z'
loop_
 _atom_site_type_symbol
 _atom_site_label
 _atom_site_symmetry_multiplicity
 _atom_site_fract_x
 _atom_site_fract_y
 _atom_site_fract_z
 _atom_site_occupancy
  Ni  Ni0  1  0.71286100  0.50719900  0.64208400  1.0
  Ni  Ni1  1  0.28703700  0.49289400  0.35787700  1.0
  Ni  Ni2  1  0.78618900  0.99256200  0.14229000  1.0
  Ni  Ni3  1  0.21421900  0.00777000  0.85785400  1.0
