# generated using pymatgen
data_Ni
_symmetry_space_group_name_H-M   'P 1'
_cell_length_a   7.55397000
_cell_length_b   7.55397007
_cell_length_c   9.60789700
_cell_angle_alpha   90.00000000
_cell_angle_beta   90.00000000
_cell_angle_gamma   119.99999969
_symmetry_Int_Tables_number   1
_chemical_formula_structural   Ni
_chemical_formula_sum   Ni6
_cell_volume   474.79866281
_cell_formula_units_Z   6
loop_
 _symmetry_equiv_pos_site_id
 _symmetry_equiv_pos_as_xyz
  1  'x, y, z'
loop_
 _atom_site_type_symbol
 _atom_site_label
 _atom_site_symmetry_multiplicity
 _atom_site_fract_x
 _atom_site_fract_y
 _atom_site_fract_z
 _atom_site_occupancy
  Ni  Ni0  1  0.76596600  0.74272600  0.74219300  1.0
  Ni  Ni1  1  0.97676000  0.23403300  0.74219300  1.0
  Ni  Ni2  1  0.74272700  0.76596700  0.24219300  1.0
  Ni  Ni3  1  0.25727300  0.02323900  0.74219300  1.0
  Ni  Ni4  1  0.23403400  0.97676100  0.24219300  1.0
  Ni  Ni5  1  0.02324000  0.25727400  0.24219300  1.0
