# generated using pymatgen
data_Ni
_symmetry_space_group_name_H-M   'P 1'
_cell_length_a   5.15564761
_cell_length_b   7.77813737
_cell_length_c   8.65805199
_cell_angle_alpha   101.33683523
_cell_angle_beta   90.02361536
_cell_angle_gamma   90.23687436
_symmetry_Int_Tables_number   1
_chemical_formula_structural   Ni
_chemical_formula_sum   Ni4
_cell_volume   340.42188344
_cell_formula_units_Z   4
loop_
 _symmetry_equiv_pos_site_id
 _symmetry_equiv_pos_as_xyz
  1  'x, y, z'
loop_
 _atom_site_type_symbol
 _atom_site_label
 _atom_site_symmetry_multiplicity
 _atom_site_fract_x
 _atom_site_fract_y
 _atom_site_fract_z
 _atom_site_occupancy
  Ni  Ni0  1  0.53491700  0.20066100  0.59147500  1.0
  Ni  Ni1  1  0.98177100  0.37642500  0.08761300  1.0
  Ni  Ni2  1  0.03607500  0.79947100  0.40829300  1.0
  Ni  Ni3  1  0.48099500  0.62280400  0.91197800  1.0
