# generated using pymatgen
data_Ni
_symmetry_space_group_name_H-M   'P 1'
_cell_length_a   4.73169600
_cell_length_b   5.93136501
_cell_length_c   10.14836402
_cell_angle_alpha   89.99360483
_cell_angle_beta   90.00132571
_cell_angle_gamma   89.99892888
_symmetry_Int_Tables_number   1
_chemical_formula_structural   Ni
_chemical_formula_sum   Ni4
_cell_volume   284.81805698
_cell_formula_units_Z   4
loop_
 _symmetry_equiv_pos_site_id
 _symmetry_equiv_pos_as_xyz
  1  'x, y, z'
loop_
 _atom_site_type_symbol
 _atom_site_label
 _atom_site_symmetry_multiplicity
 _atom_site_fract_x
 _atom_site_fract_y
 _atom_site_fract_z
 _atom_site_occupancy
  Ni  Ni0  1  0.01912900  0.50203100  0.47424900  1.0
  Ni  Ni1  1  0.51918200  0.99823400  0.52575500  1.0
  Ni  Ni2  1  0.98072400  0.00180900  0.02584500  1.0
  Ni  Ni3  1  0.48094500  0.49815500  0.97412700  1.0
