# generated using pymatgen
data_Ni
_symmetry_space_group_name_H-M   'P 1'
_cell_length_a   4.97543751
_cell_length_b   4.97715992
_cell_length_c   8.25806286
_cell_angle_alpha   107.49006420
_cell_angle_beta   90.03456000
_cell_angle_gamma   119.93911557
_symmetry_Int_Tables_number   1
_chemical_formula_structural   Ni
_chemical_formula_sum   Ni2
_cell_volume   166.18780160
_cell_formula_units_Z   2
loop_
 _symmetry_equiv_pos_site_id
 _symmetry_equiv_pos_as_xyz
  1  'x, y, z'
loop_
 _atom_site_type_symbol
 _atom_site_label
 _atom_site_symmetry_multiplicity
 _atom_site_fract_x
 _atom_site_fract_y
 _atom_site_fract_z
 _atom_site_occupancy
  Ni  Ni0  1  0.01460000  0.03006950  0.04515950  1.0
  Ni  Ni1  1  0.56025100  0.12042000  0.68137400  1.0
