# generated using pymatgen
data_Ni
_symmetry_space_group_name_H-M   'P 1'
_cell_length_a   4.97614520
_cell_length_b   4.97656124
_cell_length_c   15.68950678
_cell_angle_alpha   89.96573639
_cell_angle_beta   89.96355235
_cell_angle_gamma   65.81127458
_symmetry_Int_Tables_number   1
_chemical_formula_structural   Ni
_chemical_formula_sum   Ni4
_cell_volume   354.42308505
_cell_formula_units_Z   4
loop_
 _symmetry_equiv_pos_site_id
 _symmetry_equiv_pos_as_xyz
  1  'x, y, z'
loop_
 _atom_site_type_symbol
 _atom_site_label
 _atom_site_symmetry_multiplicity
 _atom_site_fract_x
 _atom_site_fract_y
 _atom_site_fract_z
 _atom_site_occupancy
  Ni  Ni0  1  0.41966600  0.90671600  0.58690200  1.0
  Ni  Ni1  1  0.58057500  0.09292300  0.41313700  1.0
  Ni  Ni2  1  0.09342300  0.58053200  0.91311800  1.0
  Ni  Ni3  1  0.90695200  0.41944500  0.08688000  1.0
