# generated using pymatgen
data_Ni
_symmetry_space_group_name_H-M   'P 1'
_cell_length_a   4.76194353
_cell_length_b   5.43643033
_cell_length_c   6.50332459
_cell_angle_alpha   101.31343744
_cell_angle_beta   90.01155181
_cell_angle_gamma   115.96868717
_symmetry_Int_Tables_number   1
_chemical_formula_structural   Ni
_chemical_formula_sum   Ni2
_cell_volume   147.70865324
_cell_formula_units_Z   2
loop_
 _symmetry_equiv_pos_site_id
 _symmetry_equiv_pos_as_xyz
  1  'x, y, z'
loop_
 _atom_site_type_symbol
 _atom_site_label
 _atom_site_symmetry_multiplicity
 _atom_site_fract_x
 _atom_site_fract_y
 _atom_site_fract_z
 _atom_site_occupancy
  Ni  Ni0  1  0.60541750  0.26774000  0.70848650  1.0
  Ni  Ni1  1  0.33776550  0.73212900  0.29147350  1.0
