# generated using pymatgen
data_Ni
_symmetry_space_group_name_H-M   'P 1'
_cell_length_a   5.35387100
_cell_length_b   7.94083700
_cell_length_c   8.42771528
_cell_angle_alpha   103.82273151
_cell_angle_beta   90.00000000
_cell_angle_gamma   90.00000000
_symmetry_Int_Tables_number   1
_chemical_formula_structural   Ni
_chemical_formula_sum   Ni4
_cell_volume   347.92125893
_cell_formula_units_Z   4
loop_
 _symmetry_equiv_pos_site_id
 _symmetry_equiv_pos_as_xyz
  1  'x, y, z'
loop_
 _atom_site_type_symbol
 _atom_site_label
 _atom_site_symmetry_multiplicity
 _atom_site_fract_x
 _atom_site_fract_y
 _atom_site_fract_z
 _atom_site_occupancy
  Ni  Ni0  1  0.66136700  0.87517500  0.20404500  1.0
  Ni  Ni1  1  0.16375700  0.36331800  0.38852600  1.0
  Ni  Ni2  1  0.33863300  0.87517500  0.70404500  1.0
  Ni  Ni3  1  0.83624300  0.36331800  0.88852600  1.0
