# generated using pymatgen
data_Ni
_symmetry_space_group_name_H-M   'P 1'
_cell_length_a   7.69323200
_cell_length_b   8.48745500
_cell_length_c   15.25424419
_cell_angle_alpha   91.39115408
_cell_angle_beta   90.00000000
_cell_angle_gamma   90.00000000
_symmetry_Int_Tables_number   1
_chemical_formula_structural   Ni
_chemical_formula_sum   Ni12
_cell_volume   995.74694139
_cell_formula_units_Z   12
loop_
 _symmetry_equiv_pos_site_id
 _symmetry_equiv_pos_as_xyz
  1  'x, y, z'
loop_
 _atom_site_type_symbol
 _atom_site_label
 _atom_site_symmetry_multiplicity
 _atom_site_fract_x
 _atom_site_fract_y
 _atom_site_fract_z
 _atom_site_occupancy
  Ni  Ni0  1  0.66975300  0.05227200  0.40166600  1.0
  Ni  Ni1  1  0.82784900  0.08585200  0.75677000  1.0
  Ni  Ni2  1  0.66666667  0.08028700  0.08115600  1.0
  Ni  Ni3  1  0.16671100  0.41971300  0.41884400  1.0
  Ni  Ni4  1  0.32784900  0.41414800  0.74323000  1.0
  Ni  Ni5  1  0.16975300  0.44772800  0.09833400  1.0
  Ni  Ni6  1  0.83024700  0.55227200  0.90166600  1.0
  Ni  Ni7  1  0.67215100  0.58585200  0.25677000  1.0
  Ni  Ni8  1  0.83328900  0.58028700  0.58115600  1.0
  Ni  Ni9  1  0.33328900  0.91971300  0.91884400  1.0
  Ni  Ni10  1  0.17215100  0.91414800  0.24323000  1.0
  Ni  Ni11  1  0.33024700  0.94772800  0.59833400  1.0
