# generated using pymatgen
data_Ni
_symmetry_space_group_name_H-M   'P 1'
_cell_length_a   4.92657600
_cell_length_b   9.85186800
_cell_length_c   14.04872400
_cell_angle_alpha   90.00000000
_cell_angle_beta   90.00000000
_cell_angle_gamma   90.00000000
_symmetry_Int_Tables_number   1
_chemical_formula_structural   Ni
_chemical_formula_sum   Ni8
_cell_volume   681.86853713
_cell_formula_units_Z   8
loop_
 _symmetry_equiv_pos_site_id
 _symmetry_equiv_pos_as_xyz
  1  'x, y, z'
loop_
 _atom_site_type_symbol
 _atom_site_label
 _atom_site_symmetry_multiplicity
 _atom_site_fract_x
 _atom_site_fract_y
 _atom_site_fract_z
 _atom_site_occupancy
  Ni  Ni0  1  0.04976100  0.03049600  0.24800400  1.0
  Ni  Ni1  1  0.54367700  0.22440900  0.99875100  1.0
  Ni  Ni2  1  0.54367700  0.27559100  0.49875100  1.0
  Ni  Ni3  1  0.04976100  0.46950400  0.74800400  1.0
  Ni  Ni4  1  0.95023900  0.53049600  0.24800400  1.0
  Ni  Ni5  1  0.45632300  0.72440900  0.99875100  1.0
  Ni  Ni6  1  0.45632300  0.77559100  0.49875100  1.0
  Ni  Ni7  1  0.95023900  0.96950400  0.74800400  1.0
