# generated using pymatgen
data_Ni
_symmetry_space_group_name_H-M   'P 1'
_cell_length_a   7.37505000
_cell_length_b   8.41401900
_cell_length_c   14.60723396
_cell_angle_alpha   89.72605680
_cell_angle_beta   90.00000000
_cell_angle_gamma   90.00000000
_symmetry_Int_Tables_number   1
_chemical_formula_structural   Ni
_chemical_formula_sum   Ni12
_cell_volume   906.42417261
_cell_formula_units_Z   12
loop_
 _symmetry_equiv_pos_site_id
 _symmetry_equiv_pos_as_xyz
  1  'x, y, z'
loop_
 _atom_site_type_symbol
 _atom_site_label
 _atom_site_symmetry_multiplicity
 _atom_site_fract_x
 _atom_site_fract_y
 _atom_site_fract_z
 _atom_site_occupancy
  Ni  Ni0  1  0.05011400  0.75769700  0.92321600  1.0
  Ni  Ni1  1  0.95326400  0.75633200  0.58625200  1.0
  Ni  Ni2  1  0.08423800  0.75361800  0.24808800  1.0
  Ni  Ni3  1  0.58423800  0.74638200  0.25191200  1.0
  Ni  Ni4  1  0.45326400  0.74366800  0.91374800  1.0
  Ni  Ni5  1  0.55011400  0.74230300  0.57678400  1.0
  Ni  Ni6  1  0.44988600  0.25769700  0.42321600  1.0
  Ni  Ni7  1  0.54673600  0.25633200  0.08625200  1.0
  Ni  Ni8  1  0.41576200  0.25361800  0.74808800  1.0
  Ni  Ni9  1  0.91576200  0.24638200  0.75191200  1.0
  Ni  Ni10  1  0.04673600  0.24366800  0.41374800  1.0
  Ni  Ni11  1  0.94988600  0.24230300  0.07678400  1.0
