# generated using pymatgen
data_Ni
_symmetry_space_group_name_H-M   'P 1'
_cell_length_a   5.10515625
_cell_length_b   7.97059733
_cell_length_c   8.27530500
_cell_angle_alpha   90.00298387
_cell_angle_beta   89.99879635
_cell_angle_gamma   89.96575765
_symmetry_Int_Tables_number   1
_chemical_formula_structural   Ni
_chemical_formula_sum   Ni4
_cell_volume   336.73157315
_cell_formula_units_Z   4
loop_
 _symmetry_equiv_pos_site_id
 _symmetry_equiv_pos_as_xyz
  1  'x, y, z'
loop_
 _atom_site_type_symbol
 _atom_site_label
 _atom_site_symmetry_multiplicity
 _atom_site_fract_x
 _atom_site_fract_y
 _atom_site_fract_z
 _atom_site_occupancy
  Ni  Ni0  1  0.46533700  0.66319900  0.55382500  1.0
  Ni  Ni1  1  0.46528000  0.16300300  0.94600200  1.0
  Ni  Ni2  1  0.96471500  0.83691400  0.05410000  1.0
  Ni  Ni3  1  0.96470800  0.33690900  0.44593800  1.0
