# generated using pymatgen
data_Ta
_symmetry_space_group_name_H-M   'P 1'
_cell_length_a   3.93784200
_cell_length_b   3.95475735
_cell_length_c   13.05467051
_cell_angle_alpha   94.28859759
_cell_angle_beta   96.40472039
_cell_angle_gamma   90.02396284
_symmetry_Int_Tables_number   1
_chemical_formula_structural   Ta
_chemical_formula_sum   Ta2
_cell_volume   201.46069030
_cell_formula_units_Z   2
loop_
 _symmetry_equiv_pos_site_id
 _symmetry_equiv_pos_as_xyz
  1  'x, y, z'
loop_
 _atom_site_type_symbol
 _atom_site_label
 _atom_site_symmetry_multiplicity
 _atom_site_fract_x
 _atom_site_fract_y
 _atom_site_fract_z
 _atom_site_occupancy
  Ta  Ta0  1  0.06162500  0.04890300  0.16016400  1.0
  Ta  Ta1  1  0.93837500  0.95109700  0.83983600  1.0
