# generated using pymatgen
data_Ta
_symmetry_space_group_name_H-M   'P 1'
_cell_length_a   5.49404200
_cell_length_b   5.55636200
_cell_length_c   12.97167861
_cell_angle_alpha   90.00000000
_cell_angle_beta   102.22613792
_cell_angle_gamma   90.00000000
_symmetry_Int_Tables_number   1
_chemical_formula_structural   Ta
_chemical_formula_sum   Ta4
_cell_volume   387.00377529
_cell_formula_units_Z   4
loop_
 _symmetry_equiv_pos_site_id
 _symmetry_equiv_pos_as_xyz
  1  'x, y, z'
loop_
 _atom_site_type_symbol
 _atom_site_label
 _atom_site_symmetry_multiplicity
 _atom_site_fract_x
 _atom_site_fract_y
 _atom_site_fract_z
 _atom_site_occupancy
  Ta  Ta0  1  0.82899900  0.03430800  0.16220100  1.0
  Ta  Ta1  1  0.17100100  0.53430800  0.83779900  1.0
  Ta  Ta2  1  0.33320200  0.53430800  0.16220100  1.0
  Ta  Ta3  1  0.66679800  0.03430800  0.83779900  1.0
