# generated using pymatgen
data_Co
_symmetry_space_group_name_H-M   'P 1'
_cell_length_a   6.40020800
_cell_length_b   6.40020824
_cell_length_c   10.42089600
_cell_angle_alpha   90.00000000
_cell_angle_beta   90.00000000
_cell_angle_gamma   119.99999874
_symmetry_Int_Tables_number   1
_chemical_formula_structural   Co
_chemical_formula_sum   Co8
_cell_volume   369.67824310
_cell_formula_units_Z   8
loop_
 _symmetry_equiv_pos_site_id
 _symmetry_equiv_pos_as_xyz
  1  'x, y, z'
loop_
 _atom_site_type_symbol
 _atom_site_label
 _atom_site_symmetry_multiplicity
 _atom_site_fract_x
 _atom_site_fract_y
 _atom_site_fract_z
 _atom_site_occupancy
  Co  Co0  1  0.00000000  0.00000000  0.05355800  1.0
  Co  Co1  1  0.66171600  0.83085800  0.80951500  1.0
  Co  Co2  1  0.33828400  0.16914200  0.30951500  1.0
  Co  Co3  1  0.16914200  0.83085800  0.80951500  1.0
  Co  Co4  1  0.83085800  0.16914200  0.30951500  1.0
  Co  Co5  1  0.00000000  0.00000000  0.55355800  1.0
  Co  Co6  1  0.16914200  0.33828400  0.80951500  1.0
  Co  Co7  1  0.83085800  0.66171600  0.30951500  1.0
