# generated using pymatgen
data_Cr2Fe
_symmetry_space_group_name_H-M   'P 1'
_cell_length_a   3.18432600
_cell_length_b   5.67351830
_cell_length_c   6.17496295
_cell_angle_alpha   114.06908167
_cell_angle_beta   104.94203523
_cell_angle_gamma   90.00000000
_symmetry_Int_Tables_number   1
_chemical_formula_structural   Cr2Fe
_chemical_formula_sum   'Cr2 Fe1'
_cell_volume   97.71352161
_cell_formula_units_Z   1
loop_
 _symmetry_equiv_pos_site_id
 _symmetry_equiv_pos_as_xyz
  1  'x, y, z'
loop_
 _atom_site_type_symbol
 _atom_site_label
 _atom_site_symmetry_multiplicity
 _atom_site_fract_x
 _atom_site_fract_y
 _atom_site_fract_z
 _atom_site_occupancy
  Cr  Cr0  1  0.73812900  0.68053600  0.47625800  1.0
  Cr  Cr1  1  0.26187100  0.31946400  0.52374200  1.0
  Fe  Fe2  1  0.00000000  0.00000000  0.00000000  1.0
