# generated using pymatgen
data_TmMn
_symmetry_space_group_name_H-M   'P 1'
_cell_length_a   5.27079300
_cell_length_b   5.81241900
_cell_length_c   7.45387100
_cell_angle_alpha   90.00000000
_cell_angle_beta   90.00000000
_cell_angle_gamma   90.00000000
_symmetry_Int_Tables_number   1
_chemical_formula_structural   TmMn
_chemical_formula_sum   'Tm4 Mn4'
_cell_volume   228.35721965
_cell_formula_units_Z   4
loop_
 _symmetry_equiv_pos_site_id
 _symmetry_equiv_pos_as_xyz
  1  'x, y, z'
loop_
 _atom_site_type_symbol
 _atom_site_label
 _atom_site_symmetry_multiplicity
 _atom_site_fract_x
 _atom_site_fract_y
 _atom_site_fract_z
 _atom_site_occupancy
  Tm  Tm0  1  0.47991500  0.41630900  0.75000000  1.0
  Tm  Tm1  1  0.52008500  0.58369100  0.25000000  1.0
  Tm  Tm2  1  0.02008500  0.91630900  0.75000000  1.0
  Tm  Tm3  1  0.97991500  0.08369100  0.25000000  1.0
  Mn  Mn4  1  0.50000000  0.00000000  0.50000000  1.0
  Mn  Mn5  1  0.50000000  0.00000000  0.00000000  1.0
  Mn  Mn6  1  0.00000000  0.50000000  0.50000000  1.0
  Mn  Mn7  1  0.00000000  0.50000000  0.00000000  1.0
