# generated using pymatgen
data_FeW
_symmetry_space_group_name_H-M   'P 1'
_cell_length_a   5.74271436
_cell_length_b   5.75875748
_cell_length_c   8.01046570
_cell_angle_alpha   89.82650060
_cell_angle_beta   90.16204225
_cell_angle_gamma   89.89037657
_symmetry_Int_Tables_number   1
_chemical_formula_structural   FeW
_chemical_formula_sum   'Fe2 W2'
_cell_volume   264.91054105
_cell_formula_units_Z   2
loop_
 _symmetry_equiv_pos_site_id
 _symmetry_equiv_pos_as_xyz
  1  'x, y, z'
loop_
 _atom_site_type_symbol
 _atom_site_label
 _atom_site_symmetry_multiplicity
 _atom_site_fract_x
 _atom_site_fract_y
 _atom_site_fract_z
 _atom_site_occupancy
  Fe  Fe0  1  0.99999500  0.49998400  0.50001900  1.0
  Fe  Fe1  1  0.50010200  0.00021200  0.99998600  1.0
  W  W2  1  0.99998000  0.49997800  0.00005700  1.0
  W  W3  1  0.49994000  0.00003000  0.49999400  1.0
