# generated using pymatgen
data_FeW
_symmetry_space_group_name_H-M   'P 1'
_cell_length_a   5.65827682
_cell_length_b   5.66322939
_cell_length_c   5.74668694
_cell_angle_alpha   60.48593567
_cell_angle_beta   60.52426168
_cell_angle_gamma   89.99381352
_symmetry_Int_Tables_number   1
_chemical_formula_structural   FeW
_chemical_formula_sum   'Fe1 W1'
_cell_volume   132.18186251
_cell_formula_units_Z   1
loop_
 _symmetry_equiv_pos_site_id
 _symmetry_equiv_pos_as_xyz
  1  'x, y, z'
loop_
 _atom_site_type_symbol
 _atom_site_label
 _atom_site_symmetry_multiplicity
 _atom_site_fract_x
 _atom_site_fract_y
 _atom_site_fract_z
 _atom_site_occupancy
  Fe  Fe0  1  0.50000800  0.50002550  0.99993850  1.0
  W  W1  1  0.00000100  0.99999650  0.99998900  1.0
