# generated using pymatgen
data_FeW
_symmetry_space_group_name_H-M   'P 1'
_cell_length_a   5.66744685
_cell_length_b   5.66880591
_cell_length_c   5.70740608
_cell_angle_alpha   119.65719260
_cell_angle_beta   119.67255808
_cell_angle_gamma   90.18491884
_symmetry_Int_Tables_number   1
_chemical_formula_structural   FeW
_chemical_formula_sum   'Fe1 W1'
_cell_volume   130.75712049
_cell_formula_units_Z   1
loop_
 _symmetry_equiv_pos_site_id
 _symmetry_equiv_pos_as_xyz
  1  'x, y, z'
loop_
 _atom_site_type_symbol
 _atom_site_label
 _atom_site_symmetry_multiplicity
 _atom_site_fract_x
 _atom_site_fract_y
 _atom_site_fract_z
 _atom_site_occupancy
  Fe  Fe0  1  0.49964700  0.49979400  0.99962950  1.0
  W  W1  1  0.00008950  0.00004750  0.00011550  1.0
