# generated using pymatgen
data_FeW
_symmetry_space_group_name_H-M   'P 1'
_cell_length_a   5.67717081
_cell_length_b   5.69436254
_cell_length_c   9.84504294
_cell_angle_alpha   73.85986545
_cell_angle_beta   73.74413290
_cell_angle_gamma   60.48881951
_symmetry_Int_Tables_number   1
_chemical_formula_structural   FeW
_chemical_formula_sum   'Fe2 W2'
_cell_volume   262.13853862
_cell_formula_units_Z   2
loop_
 _symmetry_equiv_pos_site_id
 _symmetry_equiv_pos_as_xyz
  1  'x, y, z'
loop_
 _atom_site_type_symbol
 _atom_site_label
 _atom_site_symmetry_multiplicity
 _atom_site_fract_x
 _atom_site_fract_y
 _atom_site_fract_z
 _atom_site_occupancy
  Fe  Fe0  1  0.25095900  0.24857300  0.24880500  1.0
  Fe  Fe1  1  0.74826600  0.74903100  0.75331600  1.0
  W  W2  1  0.49871300  0.50236500  0.50236800  1.0
  W  W3  1  0.00063600  0.99658800  0.99842000  1.0
