# generated using pymatgen
data_Fe
_symmetry_space_group_name_H-M   'P 1'
_cell_length_a   9.73147100
_cell_length_b   9.78538144
_cell_length_c   11.14188748
_cell_angle_alpha   89.93967208
_cell_angle_beta   101.85303290
_cell_angle_gamma   89.76197786
_symmetry_Int_Tables_number   1
_chemical_formula_structural   Fe
_chemical_formula_sum   Fe8
_cell_volume   1038.36522837
_cell_formula_units_Z   8
loop_
 _symmetry_equiv_pos_site_id
 _symmetry_equiv_pos_as_xyz
  1  'x, y, z'
loop_
 _atom_site_type_symbol
 _atom_site_label
 _atom_site_symmetry_multiplicity
 _atom_site_fract_x
 _atom_site_fract_y
 _atom_site_fract_z
 _atom_site_occupancy
  Fe  Fe0  1  0.79727200  0.91484200  0.32730500  1.0
  Fe  Fe1  1  0.75092800  0.21181300  0.17458000  1.0
  Fe  Fe2  1  0.74397700  0.70453300  0.82188400  1.0
  Fe  Fe3  1  0.70744000  0.41514500  0.66397300  1.0
  Fe  Fe4  1  0.30132200  0.58458400  0.32860900  1.0
  Fe  Fe5  1  0.25906900  0.29423000  0.17532800  1.0
  Fe  Fe6  1  0.25619300  0.77480900  0.82544200  1.0
  Fe  Fe7  1  0.20812400  0.07023900  0.66717500  1.0
