# generated using pymatgen
data_Fe
_symmetry_space_group_name_H-M   'P 1'
_cell_length_a   5.16133200
_cell_length_b   8.14329500
_cell_length_c   13.30038015
_cell_angle_alpha   105.09611375
_cell_angle_beta   90.00000000
_cell_angle_gamma   90.00000000
_symmetry_Int_Tables_number   1
_chemical_formula_structural   Fe
_chemical_formula_sum   Fe4
_cell_volume   539.72673587
_cell_formula_units_Z   4
loop_
 _symmetry_equiv_pos_site_id
 _symmetry_equiv_pos_as_xyz
  1  'x, y, z'
loop_
 _atom_site_type_symbol
 _atom_site_label
 _atom_site_symmetry_multiplicity
 _atom_site_fract_x
 _atom_site_fract_y
 _atom_site_fract_z
 _atom_site_occupancy
  Fe  Fe0  1  0.01480500  0.09537600  0.36661000  1.0
  Fe  Fe1  1  0.98519500  0.59537600  0.86661000  1.0
  Fe  Fe2  1  0.50656200  0.41371000  0.14454700  1.0
  Fe  Fe3  1  0.49343800  0.91371000  0.64454700  1.0
