# generated using pymatgen
data_Fe
_symmetry_space_group_name_H-M   'P 1'
_cell_length_a   9.67242300
_cell_length_b   9.75606309
_cell_length_c   11.11461813
_cell_angle_alpha   89.92339325
_cell_angle_beta   78.68457357
_cell_angle_gamma   89.87534304
_symmetry_Int_Tables_number   1
_chemical_formula_structural   Fe
_chemical_formula_sum   Fe8
_cell_volume   1028.43822911
_cell_formula_units_Z   8
loop_
 _symmetry_equiv_pos_site_id
 _symmetry_equiv_pos_as_xyz
  1  'x, y, z'
loop_
 _atom_site_type_symbol
 _atom_site_label
 _atom_site_symmetry_multiplicity
 _atom_site_fract_x
 _atom_site_fract_y
 _atom_site_fract_z
 _atom_site_occupancy
  Fe  Fe0  1  0.20451800  0.08401800  0.32259000  1.0
  Fe  Fe1  1  0.24654500  0.79181100  0.16796600  1.0
  Fe  Fe2  1  0.24509500  0.27988100  0.82681200  1.0
  Fe  Fe3  1  0.29237300  0.57252600  0.67292100  1.0
  Fe  Fe4  1  0.70209100  0.41687700  0.32655300  1.0
  Fe  Fe5  1  0.74871100  0.71138800  0.17078000  1.0
  Fe  Fe6  1  0.74399400  0.22100500  0.82574400  1.0
  Fe  Fe7  1  0.79345700  0.92788300  0.66945500  1.0
