# generated using pymatgen
data_Fe
_symmetry_space_group_name_H-M   'P 1'
_cell_length_a   7.12046700
_cell_length_b   8.08470566
_cell_length_c   10.16915000
_cell_angle_alpha   90.00000000
_cell_angle_beta   90.00000000
_cell_angle_gamma   111.12028158
_symmetry_Int_Tables_number   1
_chemical_formula_structural   Fe
_chemical_formula_sum   Fe4
_cell_volume   546.08218388
_cell_formula_units_Z   4
loop_
 _symmetry_equiv_pos_site_id
 _symmetry_equiv_pos_as_xyz
  1  'x, y, z'
loop_
 _atom_site_type_symbol
 _atom_site_label
 _atom_site_symmetry_multiplicity
 _atom_site_fract_x
 _atom_site_fract_y
 _atom_site_fract_z
 _atom_site_occupancy
  Fe  Fe0  1  0.23558300  0.75530400  0.60614200  1.0
  Fe  Fe1  1  0.23558300  0.25530400  0.89385800  1.0
  Fe  Fe2  1  0.76441700  0.74469600  0.10614200  1.0
  Fe  Fe3  1  0.76441700  0.24469600  0.39385800  1.0
