# generated using pymatgen
data_Fe
_symmetry_space_group_name_H-M   'P 1'
_cell_length_a   6.53259209
_cell_length_b   6.53259209
_cell_length_c   6.70051500
_cell_angle_alpha   69.73296173
_cell_angle_beta   69.73296173
_cell_angle_gamma   79.84984903
_symmetry_Int_Tables_number   1
_chemical_formula_structural   Fe
_chemical_formula_sum   Fe2
_cell_volume   251.11815833
_cell_formula_units_Z   2
loop_
 _symmetry_equiv_pos_site_id
 _symmetry_equiv_pos_as_xyz
  1  'x, y, z'
loop_
 _atom_site_type_symbol
 _atom_site_label
 _atom_site_symmetry_multiplicity
 _atom_site_fract_x
 _atom_site_fract_y
 _atom_site_fract_z
 _atom_site_occupancy
  Fe  Fe0  1  0.69243500  0.80756500  0.50000000  1.0
  Fe  Fe1  1  0.30756500  0.19243500  0.50000000  1.0
