# generated using pymatgen
data_Fe
_symmetry_space_group_name_H-M   'P 1'
_cell_length_a   9.70418800
_cell_length_b   9.70751544
_cell_length_c   11.09988243
_cell_angle_alpha   89.81947935
_cell_angle_beta   78.15618155
_cell_angle_gamma   89.93936070
_symmetry_Int_Tables_number   1
_chemical_formula_structural   Fe
_chemical_formula_sum   Fe8
_cell_volume   1023.38210030
_cell_formula_units_Z   8
loop_
 _symmetry_equiv_pos_site_id
 _symmetry_equiv_pos_as_xyz
  1  'x, y, z'
loop_
 _atom_site_type_symbol
 _atom_site_label
 _atom_site_symmetry_multiplicity
 _atom_site_fract_x
 _atom_site_fract_y
 _atom_site_fract_z
 _atom_site_occupancy
  Fe  Fe0  1  0.20322800  0.07969400  0.32550100  1.0
  Fe  Fe1  1  0.25034200  0.79184900  0.17133000  1.0
  Fe  Fe2  1  0.24616100  0.28258700  0.82438500  1.0
  Fe  Fe3  1  0.29735500  0.58173800  0.67844300  1.0
  Fe  Fe4  1  0.69963200  0.41740800  0.32800200  1.0
  Fe  Fe5  1  0.74634400  0.71299200  0.17321700  1.0
  Fe  Fe6  1  0.74599500  0.21636900  0.82271500  1.0
  Fe  Fe7  1  0.79317400  0.92645200  0.66838400  1.0
