# generated using pymatgen
data_Fe
_symmetry_space_group_name_H-M   'P 1'
_cell_length_a   6.31850212
_cell_length_b   6.31850212
_cell_length_c   13.17185473
_cell_angle_alpha   101.58794081
_cell_angle_beta   101.51061339
_cell_angle_gamma   99.51249194
_symmetry_Int_Tables_number   1
_chemical_formula_structural   Fe
_chemical_formula_sum   Fe4
_cell_volume   493.10153547
_cell_formula_units_Z   4
loop_
 _symmetry_equiv_pos_site_id
 _symmetry_equiv_pos_as_xyz
  1  'x, y, z'
loop_
 _atom_site_type_symbol
 _atom_site_label
 _atom_site_symmetry_multiplicity
 _atom_site_fract_x
 _atom_site_fract_y
 _atom_site_fract_z
 _atom_site_occupancy
  Fe  Fe0  1  0.87494700  0.99159000  0.39187100  1.0
  Fe  Fe1  1  0.59971900  0.48307600  0.60812900  1.0
  Fe  Fe2  1  0.12447800  0.50992600  0.10664300  1.0
  Fe  Fe3  1  0.40328300  0.01783500  0.89335700  1.0
