# generated using pymatgen
data_Fe
_symmetry_space_group_name_H-M   'P 1'
_cell_length_a   6.95849500
_cell_length_b   8.41612600
_cell_length_c   9.33130325
_cell_angle_alpha   90.00000000
_cell_angle_beta   111.38284832
_cell_angle_gamma   90.00000000
_symmetry_Int_Tables_number   1
_chemical_formula_structural   Fe
_chemical_formula_sum   Fe4
_cell_volume   508.85787027
_cell_formula_units_Z   4
loop_
 _symmetry_equiv_pos_site_id
 _symmetry_equiv_pos_as_xyz
  1  'x, y, z'
loop_
 _atom_site_type_symbol
 _atom_site_label
 _atom_site_symmetry_multiplicity
 _atom_site_fract_x
 _atom_site_fract_y
 _atom_site_fract_z
 _atom_site_occupancy
  Fe  Fe0  1  0.31014500  0.93208100  0.19279400  1.0
  Fe  Fe1  1  0.68985500  0.43208100  0.30720600  1.0
  Fe  Fe2  1  0.31014500  0.56791900  0.69279400  1.0
  Fe  Fe3  1  0.68985500  0.06791900  0.80720600  1.0
