# generated using pymatgen
data_Fe
_symmetry_space_group_name_H-M   'P 1'
_cell_length_a   5.30089998
_cell_length_b   5.30089998
_cell_length_c   9.07749993
_cell_angle_alpha   98.48165465
_cell_angle_beta   98.48165465
_cell_angle_gamma   103.73269481
_symmetry_Int_Tables_number   1
_chemical_formula_structural   Fe
_chemical_formula_sum   Fe2
_cell_volume   240.60998279
_cell_formula_units_Z   2
loop_
 _symmetry_equiv_pos_site_id
 _symmetry_equiv_pos_as_xyz
  1  'x, y, z'
loop_
 _atom_site_type_symbol
 _atom_site_label
 _atom_site_symmetry_multiplicity
 _atom_site_fract_x
 _atom_site_fract_y
 _atom_site_fract_z
 _atom_site_occupancy
  Fe  Fe0  1  0.32486900  0.68633800  0.99770700  1.0
  Fe  Fe1  1  0.68633800  0.32486900  0.49770700  1.0
