# generated using pymatgen
data_Fe
_symmetry_space_group_name_H-M   'P 1'
_cell_length_a   6.22878897
_cell_length_b   6.41640477
_cell_length_c   7.97196732
_cell_angle_alpha   98.42586881
_cell_angle_beta   105.07196208
_cell_angle_gamma   112.43431148
_symmetry_Int_Tables_number   1
_chemical_formula_structural   Fe
_chemical_formula_sum   Fe2
_cell_volume   273.37387460
_cell_formula_units_Z   2
loop_
 _symmetry_equiv_pos_site_id
 _symmetry_equiv_pos_as_xyz
  1  'x, y, z'
loop_
 _atom_site_type_symbol
 _atom_site_label
 _atom_site_symmetry_multiplicity
 _atom_site_fract_x
 _atom_site_fract_y
 _atom_site_fract_z
 _atom_site_occupancy
  Fe  Fe0  1  0.61445150  0.30892850  0.76629300  1.0
  Fe  Fe1  1  0.38556450  0.69108100  0.23369950  1.0
