# generated using pymatgen
data_Fe
_symmetry_space_group_name_H-M   'P 1'
_cell_length_a   9.72838900
_cell_length_b   9.81278743
_cell_length_c   11.23481526
_cell_angle_alpha   89.73797848
_cell_angle_beta   78.03177316
_cell_angle_gamma   89.92491186
_symmetry_Int_Tables_number   1
_chemical_formula_structural   Fe
_chemical_formula_sum   Fe8
_cell_volume   1049.18047277
_cell_formula_units_Z   8
loop_
 _symmetry_equiv_pos_site_id
 _symmetry_equiv_pos_as_xyz
  1  'x, y, z'
loop_
 _atom_site_type_symbol
 _atom_site_label
 _atom_site_symmetry_multiplicity
 _atom_site_fract_x
 _atom_site_fract_y
 _atom_site_fract_z
 _atom_site_occupancy
  Fe  Fe0  1  0.20482500  0.08981500  0.32838600  1.0
  Fe  Fe1  1  0.24532600  0.79733300  0.17743400  1.0
  Fe  Fe2  1  0.25279300  0.29584800  0.82298500  1.0
  Fe  Fe3  1  0.29308900  0.58200200  0.66166300  1.0
  Fe  Fe4  1  0.70343800  0.40959100  0.31908500  1.0
  Fe  Fe5  1  0.74649400  0.70444500  0.17903700  1.0
  Fe  Fe6  1  0.75531300  0.21243800  0.82422000  1.0
  Fe  Fe7  1  0.79299100  0.92649500  0.66281100  1.0
