# generated using pymatgen
data_Fe
_symmetry_space_group_name_H-M   'P 1'
_cell_length_a   5.08939500
_cell_length_b   6.79151487
_cell_length_c   8.29820290
_cell_angle_alpha   68.60743676
_cell_angle_beta   87.24102916
_cell_angle_gamma   87.35291285
_symmetry_Int_Tables_number   1
_chemical_formula_structural   Fe
_chemical_formula_sum   Fe2
_cell_volume   266.62762117
_cell_formula_units_Z   2
loop_
 _symmetry_equiv_pos_site_id
 _symmetry_equiv_pos_as_xyz
  1  'x, y, z'
loop_
 _atom_site_type_symbol
 _atom_site_label
 _atom_site_symmetry_multiplicity
 _atom_site_fract_x
 _atom_site_fract_y
 _atom_site_fract_z
 _atom_site_occupancy
  Fe  Fe0  1  0.75686400  0.79333000  0.27019100  1.0
  Fe  Fe1  1  0.24095900  0.22686200  0.72789600  1.0
