# generated using pymatgen
data_Fe
_symmetry_space_group_name_H-M   'P 1'
_cell_length_a   6.36399000
_cell_length_b   6.42521404
_cell_length_c   6.95583065
_cell_angle_alpha   84.61277894
_cell_angle_beta   67.21834103
_cell_angle_gamma   81.92777339
_symmetry_Int_Tables_number   1
_chemical_formula_structural   Fe
_chemical_formula_sum   Fe2
_cell_volume   259.39358038
_cell_formula_units_Z   2
loop_
 _symmetry_equiv_pos_site_id
 _symmetry_equiv_pos_as_xyz
  1  'x, y, z'
loop_
 _atom_site_type_symbol
 _atom_site_label
 _atom_site_symmetry_multiplicity
 _atom_site_fract_x
 _atom_site_fract_y
 _atom_site_fract_z
 _atom_site_occupancy
  Fe  Fe0  1  0.09880400  0.64900500  0.77575800  1.0
  Fe  Fe1  1  0.90119600  0.35099500  0.22424200  1.0
