# generated using pymatgen
data_Fe
_symmetry_space_group_name_H-M   'P 1'
_cell_length_a   5.09928000
_cell_length_b   8.05071400
_cell_length_c   13.40039441
_cell_angle_alpha   90.00000000
_cell_angle_beta   91.41224142
_cell_angle_gamma   90.00000000
_symmetry_Int_Tables_number   1
_chemical_formula_structural   Fe
_chemical_formula_sum   Fe4
_cell_volume   549.95721128
_cell_formula_units_Z   4
loop_
 _symmetry_equiv_pos_site_id
 _symmetry_equiv_pos_as_xyz
  1  'x, y, z'
loop_
 _atom_site_type_symbol
 _atom_site_label
 _atom_site_symmetry_multiplicity
 _atom_site_fract_x
 _atom_site_fract_y
 _atom_site_fract_z
 _atom_site_occupancy
  Fe  Fe0  1  0.19382800  0.15213400  0.88318800  1.0
  Fe  Fe1  1  0.30617200  0.65213400  0.61681200  1.0
  Fe  Fe2  1  0.69382800  0.34786600  0.38318800  1.0
  Fe  Fe3  1  0.80617200  0.84786600  0.11681200  1.0
