# generated using pymatgen
data_Fe
_symmetry_space_group_name_H-M   'P 1'
_cell_length_a   6.27873600
_cell_length_b   6.70797660
_cell_length_c   7.08641448
_cell_angle_alpha   75.44267553
_cell_angle_beta   65.08852982
_cell_angle_gamma   81.03527078
_symmetry_Int_Tables_number   1
_chemical_formula_structural   Fe
_chemical_formula_sum   Fe2
_cell_volume   261.57906269
_cell_formula_units_Z   2
loop_
 _symmetry_equiv_pos_site_id
 _symmetry_equiv_pos_as_xyz
  1  'x, y, z'
loop_
 _atom_site_type_symbol
 _atom_site_label
 _atom_site_symmetry_multiplicity
 _atom_site_fract_x
 _atom_site_fract_y
 _atom_site_fract_z
 _atom_site_occupancy
  Fe  Fe0  1  0.74216600  0.18789800  0.90110500  1.0
  Fe  Fe1  1  0.25783400  0.81210200  0.09889500  1.0
