# generated using pymatgen
data_Fe
_symmetry_space_group_name_H-M   'P 1'
_cell_length_a   5.08362400
_cell_length_b   8.50445609
_cell_length_c   13.25571300
_cell_angle_alpha   90.00000000
_cell_angle_beta   90.00000000
_cell_angle_gamma   92.03206014
_symmetry_Int_Tables_number   1
_chemical_formula_structural   Fe
_chemical_formula_sum   Fe4
_cell_volume   572.72990690
_cell_formula_units_Z   4
loop_
 _symmetry_equiv_pos_site_id
 _symmetry_equiv_pos_as_xyz
  1  'x, y, z'
loop_
 _atom_site_type_symbol
 _atom_site_label
 _atom_site_symmetry_multiplicity
 _atom_site_fract_x
 _atom_site_fract_y
 _atom_site_fract_z
 _atom_site_occupancy
  Fe  Fe0  1  0.70086400  0.73448600  0.32597200  1.0
  Fe  Fe1  1  0.20086300  0.23448500  0.17402800  1.0
  Fe  Fe2  1  0.29913600  0.26551400  0.67402800  1.0
  Fe  Fe3  1  0.79913600  0.76551400  0.82597200  1.0
