# generated using pymatgen
data_Fe
_symmetry_space_group_name_H-M   'P 1'
_cell_length_a   9.68690800
_cell_length_b   9.77485472
_cell_length_c   11.20881140
_cell_angle_alpha   89.76466073
_cell_angle_beta   101.27982551
_cell_angle_gamma   89.70030941
_symmetry_Int_Tables_number   1
_chemical_formula_structural   Fe
_chemical_formula_sum   Fe8
_cell_volume   1040.81147851
_cell_formula_units_Z   8
loop_
 _symmetry_equiv_pos_site_id
 _symmetry_equiv_pos_as_xyz
  1  'x, y, z'
loop_
 _atom_site_type_symbol
 _atom_site_label
 _atom_site_symmetry_multiplicity
 _atom_site_fract_x
 _atom_site_fract_y
 _atom_site_fract_z
 _atom_site_occupancy
  Fe  Fe0  1  0.20512700  0.91777300  0.67444400  1.0
  Fe  Fe1  1  0.24228300  0.20223900  0.82849000  1.0
  Fe  Fe2  1  0.23798800  0.72094600  0.16992700  1.0
  Fe  Fe3  1  0.29391800  0.42240900  0.33118200  1.0
  Fe  Fe4  1  0.70480000  0.58463800  0.68205100  1.0
  Fe  Fe5  1  0.75225200  0.28825000  0.82410600  1.0
  Fe  Fe6  1  0.74824000  0.78891000  0.17311700  1.0
  Fe  Fe7  1  0.79411300  0.07582400  0.33363900  1.0
