# generated using pymatgen
data_Fe
_symmetry_space_group_name_H-M   'P 1'
_cell_length_a   6.81021500
_cell_length_b   8.20617500
_cell_length_c   9.43635693
_cell_angle_alpha   90.00000000
_cell_angle_beta   107.49554827
_cell_angle_gamma   90.00000000
_symmetry_Int_Tables_number   1
_chemical_formula_structural   Fe
_chemical_formula_sum   Fe4
_cell_volume   502.96306775
_cell_formula_units_Z   4
loop_
 _symmetry_equiv_pos_site_id
 _symmetry_equiv_pos_as_xyz
  1  'x, y, z'
loop_
 _atom_site_type_symbol
 _atom_site_label
 _atom_site_symmetry_multiplicity
 _atom_site_fract_x
 _atom_site_fract_y
 _atom_site_fract_z
 _atom_site_occupancy
  Fe  Fe0  1  0.28126200  0.77662800  0.99674700  1.0
  Fe  Fe1  1  0.28126200  0.72337200  0.49674700  1.0
  Fe  Fe2  1  0.71873800  0.27662800  0.50325300  1.0
  Fe  Fe3  1  0.71873800  0.22337200  0.00325300  1.0
