# generated using pymatgen
data_Fe
_symmetry_space_group_name_H-M   'P 1'
_cell_length_a   6.26930775
_cell_length_b   6.26930775
_cell_length_c   13.95699430
_cell_angle_alpha   77.66384696
_cell_angle_beta   77.66384696
_cell_angle_gamma   80.91071438
_symmetry_Int_Tables_number   1
_chemical_formula_structural   Fe
_chemical_formula_sum   Fe4
_cell_volume   519.89035696
_cell_formula_units_Z   4
loop_
 _symmetry_equiv_pos_site_id
 _symmetry_equiv_pos_as_xyz
  1  'x, y, z'
loop_
 _atom_site_type_symbol
 _atom_site_label
 _atom_site_symmetry_multiplicity
 _atom_site_fract_x
 _atom_site_fract_y
 _atom_site_fract_z
 _atom_site_occupancy
  Fe  Fe0  1  0.84580200  0.58710000  0.64741700  1.0
  Fe  Fe1  1  0.58710000  0.84580200  0.14741700  1.0
  Fe  Fe2  1  0.41290000  0.15419800  0.85258300  1.0
  Fe  Fe3  1  0.15419800  0.41290000  0.35258300  1.0
