# generated using pymatgen
data_Fe
_symmetry_space_group_name_H-M   'P 1'
_cell_length_a   9.73130000
_cell_length_b   9.80888894
_cell_length_c   11.14129033
_cell_angle_alpha   89.63173869
_cell_angle_beta   78.49059037
_cell_angle_gamma   89.66672205
_symmetry_Int_Tables_number   1
_chemical_formula_structural   Fe
_chemical_formula_sum   Fe8
_cell_volume   1042.05523403
_cell_formula_units_Z   8
loop_
 _symmetry_equiv_pos_site_id
 _symmetry_equiv_pos_as_xyz
  1  'x, y, z'
loop_
 _atom_site_type_symbol
 _atom_site_label
 _atom_site_symmetry_multiplicity
 _atom_site_fract_x
 _atom_site_fract_y
 _atom_site_fract_z
 _atom_site_occupancy
  Fe  Fe0  1  0.21064400  0.08699000  0.33525700  1.0
  Fe  Fe1  1  0.24765900  0.79677800  0.17603600  1.0
  Fe  Fe2  1  0.25234000  0.29018700  0.82546000  1.0
  Fe  Fe3  1  0.29033000  0.57457500  0.66829900  1.0
  Fe  Fe4  1  0.70408600  0.41011000  0.32149500  1.0
  Fe  Fe5  1  0.75034800  0.70441800  0.17665600  1.0
  Fe  Fe6  1  0.75317300  0.21162400  0.82372200  1.0
  Fe  Fe7  1  0.78997100  0.92820400  0.66441300  1.0
