# generated using pymatgen
data_Fe
_symmetry_space_group_name_H-M   'P 1'
_cell_length_a   6.45643900
_cell_length_b   9.36849740
_cell_length_c   10.52043203
_cell_angle_alpha   65.45734370
_cell_angle_beta   85.90295394
_cell_angle_gamma   72.89984658
_symmetry_Int_Tables_number   1
_chemical_formula_structural   Fe
_chemical_formula_sum   Fe4
_cell_volume   552.32676195
_cell_formula_units_Z   4
loop_
 _symmetry_equiv_pos_site_id
 _symmetry_equiv_pos_as_xyz
  1  'x, y, z'
loop_
 _atom_site_type_symbol
 _atom_site_label
 _atom_site_symmetry_multiplicity
 _atom_site_fract_x
 _atom_site_fract_y
 _atom_site_fract_z
 _atom_site_occupancy
  Fe  Fe0  1  0.27466700  0.09251200  0.77054700  1.0
  Fe  Fe1  1  0.36513500  0.49458600  0.75449300  1.0
  Fe  Fe2  1  0.65103400  0.49265900  0.26149000  1.0
  Fe  Fe3  1  0.72049000  0.89872700  0.21550600  1.0
