# generated using pymatgen
data_Fe
_symmetry_space_group_name_H-M   'P 1'
_cell_length_a   7.85180780
_cell_length_b   7.85180780
_cell_length_c   10.64840804
_cell_angle_alpha   91.30630882
_cell_angle_beta   91.30630882
_cell_angle_gamma   117.11548947
_symmetry_Int_Tables_number   1
_chemical_formula_structural   Fe
_chemical_formula_sum   Fe4
_cell_volume   583.77110569
_cell_formula_units_Z   4
loop_
 _symmetry_equiv_pos_site_id
 _symmetry_equiv_pos_as_xyz
  1  'x, y, z'
loop_
 _atom_site_type_symbol
 _atom_site_label
 _atom_site_symmetry_multiplicity
 _atom_site_fract_x
 _atom_site_fract_y
 _atom_site_fract_z
 _atom_site_occupancy
  Fe  Fe0  1  0.31195600  0.31140000  0.89122600  1.0
  Fe  Fe1  1  0.68804400  0.68860000  0.10877400  1.0
  Fe  Fe2  1  0.31140000  0.31195600  0.39122600  1.0
  Fe  Fe3  1  0.68860000  0.68804400  0.60877400  1.0
