# generated using pymatgen
data_Fe
_symmetry_space_group_name_H-M   'P 1'
_cell_length_a   5.44948600
_cell_length_b   8.05604048
_cell_length_c   8.31034100
_cell_angle_alpha   117.19053626
_cell_angle_beta   90.00000000
_cell_angle_gamma   109.76868298
_symmetry_Int_Tables_number   1
_chemical_formula_structural   Fe
_chemical_formula_sum   Fe2
_cell_volume   300.14173123
_cell_formula_units_Z   2
loop_
 _symmetry_equiv_pos_site_id
 _symmetry_equiv_pos_as_xyz
  1  'x, y, z'
loop_
 _atom_site_type_symbol
 _atom_site_label
 _atom_site_symmetry_multiplicity
 _atom_site_fract_x
 _atom_site_fract_y
 _atom_site_fract_z
 _atom_site_occupancy
  Fe  Fe0  1  0.01217100  0.00229900  0.50051200  1.0
  Fe  Fe1  1  0.99012800  0.00229900  0.00051200  1.0
