# generated using pymatgen
data_Fe
_symmetry_space_group_name_H-M   'P 1'
_cell_length_a   7.18218900
_cell_length_b   8.24163800
_cell_length_c   9.71731551
_cell_angle_alpha   90.00000000
_cell_angle_beta   68.99068040
_cell_angle_gamma   90.00000000
_symmetry_Int_Tables_number   1
_chemical_formula_structural   Fe
_chemical_formula_sum   Fe4
_cell_volume   536.95919388
_cell_formula_units_Z   4
loop_
 _symmetry_equiv_pos_site_id
 _symmetry_equiv_pos_as_xyz
  1  'x, y, z'
loop_
 _atom_site_type_symbol
 _atom_site_label
 _atom_site_symmetry_multiplicity
 _atom_site_fract_x
 _atom_site_fract_y
 _atom_site_fract_z
 _atom_site_occupancy
  Fe  Fe0  1  0.73560900  0.50139200  0.75121300  1.0
  Fe  Fe1  1  0.73560900  0.99860800  0.25121300  1.0
  Fe  Fe2  1  0.26439100  0.00139200  0.74878700  1.0
  Fe  Fe3  1  0.26439100  0.49860800  0.24878700  1.0
