# generated using pymatgen
data_Fe
_symmetry_space_group_name_H-M   'P 1'
_cell_length_a   5.06389900
_cell_length_b   8.45482600
_cell_length_c   12.24460996
_cell_angle_alpha   101.32078128
_cell_angle_beta   90.00000000
_cell_angle_gamma   90.00000000
_symmetry_Int_Tables_number   1
_chemical_formula_structural   Fe
_chemical_formula_sum   Fe4
_cell_volume   514.04547522
_cell_formula_units_Z   4
loop_
 _symmetry_equiv_pos_site_id
 _symmetry_equiv_pos_as_xyz
  1  'x, y, z'
loop_
 _atom_site_type_symbol
 _atom_site_label
 _atom_site_symmetry_multiplicity
 _atom_site_fract_x
 _atom_site_fract_y
 _atom_site_fract_z
 _atom_site_occupancy
  Fe  Fe0  1  0.76225800  0.23617800  0.97274600  1.0
  Fe  Fe1  1  0.26225800  0.26382200  0.52725400  1.0
  Fe  Fe2  1  0.73774200  0.73617800  0.47274600  1.0
  Fe  Fe3  1  0.23774200  0.76382200  0.02725400  1.0
