# generated using pymatgen
data_Fe
_symmetry_space_group_name_H-M   'P 1'
_cell_length_a   4.81360900
_cell_length_b   8.03543235
_cell_length_c   8.70689039
_cell_angle_alpha   107.54340853
_cell_angle_beta   90.30490937
_cell_angle_gamma   107.04263150
_symmetry_Int_Tables_number   1
_chemical_formula_structural   Fe
_chemical_formula_sum   Fe2
_cell_volume   305.38773567
_cell_formula_units_Z   2
loop_
 _symmetry_equiv_pos_site_id
 _symmetry_equiv_pos_as_xyz
  1  'x, y, z'
loop_
 _atom_site_type_symbol
 _atom_site_label
 _atom_site_symmetry_multiplicity
 _atom_site_fract_x
 _atom_site_fract_y
 _atom_site_fract_z
 _atom_site_occupancy
  Fe  Fe0  1  0.62309400  0.51234700  0.05173700  1.0
  Fe  Fe1  1  0.39026300  0.51472300  0.55340700  1.0
