# generated using pymatgen
data_Fe
_symmetry_space_group_name_H-M   'P 1'
_cell_length_a   6.31285718
_cell_length_b   6.31285718
_cell_length_c   13.17796709
_cell_angle_alpha   101.60492830
_cell_angle_beta   101.38409991
_cell_angle_gamma   99.67387190
_symmetry_Int_Tables_number   1
_chemical_formula_structural   Fe
_chemical_formula_sum   Fe4
_cell_volume   492.37107788
_cell_formula_units_Z   4
loop_
 _symmetry_equiv_pos_site_id
 _symmetry_equiv_pos_as_xyz
  1  'x, y, z'
loop_
 _atom_site_type_symbol
 _atom_site_label
 _atom_site_symmetry_multiplicity
 _atom_site_fract_x
 _atom_site_fract_y
 _atom_site_fract_z
 _atom_site_occupancy
  Fe  Fe0  1  0.87615800  0.73931400  0.14189100  1.0
  Fe  Fe1  1  0.59742300  0.23426700  0.35810900  1.0
  Fe  Fe2  1  0.12384200  0.26068600  0.85810900  1.0
  Fe  Fe3  1  0.40257700  0.76573300  0.64189100  1.0
