# generated using pymatgen
data_Fe
_symmetry_space_group_name_H-M   'P 1'
_cell_length_a   6.19619600
_cell_length_b   7.51117500
_cell_length_c   11.32405469
_cell_angle_alpha   98.93614864
_cell_angle_beta   90.00000000
_cell_angle_gamma   90.00000000
_symmetry_Int_Tables_number   1
_chemical_formula_structural   Fe
_chemical_formula_sum   Fe4
_cell_volume   520.63252059
_cell_formula_units_Z   4
loop_
 _symmetry_equiv_pos_site_id
 _symmetry_equiv_pos_as_xyz
  1  'x, y, z'
loop_
 _atom_site_type_symbol
 _atom_site_label
 _atom_site_symmetry_multiplicity
 _atom_site_fract_x
 _atom_site_fract_y
 _atom_site_fract_z
 _atom_site_occupancy
  Fe  Fe0  1  0.37717600  0.47512900  0.26769700  1.0
  Fe  Fe1  1  0.12282400  0.97512900  0.76769700  1.0
  Fe  Fe2  1  0.87717600  0.02487100  0.23230300  1.0
  Fe  Fe3  1  0.62282400  0.52487100  0.73230300  1.0
