# generated using pymatgen
data_Re2NiO6
_symmetry_space_group_name_H-M   'P 1'
_cell_length_a   14.46535467
_cell_length_b   11.26398493
_cell_length_c   5.55625847
_cell_angle_alpha   75.43528412
_cell_angle_beta   88.36090908
_cell_angle_gamma   29.53213022
_symmetry_Int_Tables_number   1
_chemical_formula_structural   Re2NiO6
_chemical_formula_sum   'Re8 Ni4 O24'
_cell_volume   396.09496595
_cell_formula_units_Z   4
loop_
 _symmetry_equiv_pos_site_id
 _symmetry_equiv_pos_as_xyz
  1  'x, y, z'
loop_
 _atom_site_type_symbol
 _atom_site_label
 _atom_site_symmetry_multiplicity
 _atom_site_fract_x
 _atom_site_fract_y
 _atom_site_fract_z
 _atom_site_occupancy
  Re  Re0  1  0.18402322  0.22488343  0.77486391  1
  Re  Re1  1  0.14932640  0.77508628  0.22523136  1
  Re  Re2  1  0.51032665  0.23096496  0.77672596  1
  Re  Re3  1  0.66010178  0.26185456  0.26313262  1
  Re  Re4  1  0.47279139  0.78741026  0.21908193  1
  Re  Re5  1  0.86044743  0.21268140  0.78085848  1
  Re  Re6  1  0.67318489  0.73824425  0.73668079  1
  Re  Re7  1  0.82314760  0.76893253  0.22315012  1
  Ni  Ni8  1  0.32533712  0.26788759  0.25850371  1
  Ni  Ni9  1  0.00805325  0.73203496  0.74153087  1
  Ni  Ni10  1  0.33588767  0.74114263  0.73099573  1
  Ni  Ni11  1  0.99713535  0.25905558  0.26914629  1
  O  O12  1  0.03008681  0.09849093  0.62079709  1
  O  O13  1  0.32133676  0.12136161  0.11437698  1
  O  O14  1  0.99969509  0.59092786  0.59039434  1
  O  O15  1  0.37903976  0.07662450  0.63542296  1
  O  O16  1  0.01757757  0.61903031  0.09876652  1
  O  O17  1  0.31594792  0.38073128  0.90120014  1
  O  O18  1  0.33376349  0.40894999  0.40959010  1
  O  O19  1  0.01198194  0.87863304  0.88584010  1
  O  O20  1  0.65994773  0.11675677  0.11814410  1
  O  O21  1  0.33178533  0.59085803  0.59457677  1
  O  O22  1  0.36195511  0.60741927  0.10728922  1
  O  O23  1  0.68966418  0.11347042  0.60494767  1
  O  O24  1  0.30324015  0.90156958  0.37933640  1
  O  O25  1  0.66189011  0.36409742  0.92120663  1
  O  O26  1  0.66619401  0.40451157  0.40678146  1
  O  O27  1  0.33737098  0.88825615  0.88274813  1
  O  O28  1  0.99590950  0.11172249  0.11749354  1
  O  O29  1  0.66715487  0.59552838  0.59310878  1
  O  O30  1  0.67152662  0.63580184  0.07891788  1
  O  O31  1  0.97111567  0.39288024  0.89243879  1
  O  O32  1  0.64351177  0.88682428  0.39474303  1
  O  O33  1  0.00161258  0.40907207  0.40537459  1
  O  O34  1  0.67337868  0.88339825  0.88143277  1
  O  O35  1  0.95455061  0.92290525  0.36517025  1
