# generated using pymatgen
data_Ni
_symmetry_space_group_name_H-M   'P 1'
_cell_length_a   2.58560852
_cell_length_b   2.58560852
_cell_length_c   7.80605819
_cell_angle_alpha   80.46699254
_cell_angle_beta   80.46699254
_cell_angle_gamma   59.99998680
_symmetry_Int_Tables_number   1
_chemical_formula_structural   Ni
_chemical_formula_sum   Ni3
_cell_volume   44.36062498
_cell_formula_units_Z   3
loop_
 _symmetry_equiv_pos_site_id
 _symmetry_equiv_pos_as_xyz
  1  'x, y, z'
loop_
 _atom_site_type_symbol
 _atom_site_label
 _atom_site_symmetry_multiplicity
 _atom_site_fract_x
 _atom_site_fract_y
 _atom_site_fract_z
 _atom_site_occupancy
  Ni  Ni0  1  0.25473300  0.25473300  0.23580100  1.0
  Ni  Ni1  1  0.50000000  0.50000000  0.50000000  1.0
  Ni  Ni2  1  0.74526700  0.74526700  0.76419900  1.0
