# generated using pymatgen
data_Er
_symmetry_space_group_name_H-M   'P 1'
_cell_length_a   4.74786900
_cell_length_b   5.58852169
_cell_length_c   10.81171000
_cell_angle_alpha   90.00000000
_cell_angle_beta   90.00000000
_cell_angle_gamma   96.21272872
_symmetry_Int_Tables_number   1
_chemical_formula_structural   Er
_chemical_formula_sum   Er4
_cell_volume   285.18843013
_cell_formula_units_Z   4
loop_
 _symmetry_equiv_pos_site_id
 _symmetry_equiv_pos_as_xyz
  1  'x, y, z'
loop_
 _atom_site_type_symbol
 _atom_site_label
 _atom_site_symmetry_multiplicity
 _atom_site_fract_x
 _atom_site_fract_y
 _atom_site_fract_z
 _atom_site_occupancy
  Er  Er0  1  0.89127600  0.59192200  0.84856800  1.0
  Er  Er1  1  0.10872400  0.90807800  0.34856800  1.0
  Er  Er2  1  0.10872400  0.40807800  0.15143200  1.0
  Er  Er3  1  0.89127600  0.09192200  0.65143200  1.0
