# generated using pymatgen
data_Fe
_symmetry_space_group_name_H-M   'P 1'
_cell_length_a   4.16026404
_cell_length_b   4.16026404
_cell_length_c   4.16026404
_cell_angle_alpha   105.02434566
_cell_angle_beta   105.02434565
_cell_angle_gamma   118.78610147
_symmetry_Int_Tables_number   1
_chemical_formula_structural   Fe
_chemical_formula_sum   Fe4
_cell_volume   54.31484683
_cell_formula_units_Z   4
loop_
 _symmetry_equiv_pos_site_id
 _symmetry_equiv_pos_as_xyz
  1  'x, y, z'
loop_
 _atom_site_type_symbol
 _atom_site_label
 _atom_site_symmetry_multiplicity
 _atom_site_fract_x
 _atom_site_fract_y
 _atom_site_fract_z
 _atom_site_occupancy
  Fe  Fe0  1  0.33385100  0.16614800  0.50000000  1.0
  Fe  Fe1  1  0.66614900  0.83385200  0.50000000  1.0
  Fe  Fe2  1  0.16614900  0.66614900  0.83229800  1.0
  Fe  Fe3  1  0.83385100  0.33385100  0.16770200  1.0
