# generated using pymatgen
data_Ti3Fe
_symmetry_space_group_name_H-M   'P 1'
_cell_length_a   5.48607100
_cell_length_b   5.53442800
_cell_length_c   20.96114639
_cell_angle_alpha   90.00000000
_cell_angle_beta   82.48042647
_cell_angle_gamma   90.00000000
_symmetry_Int_Tables_number   1
_chemical_formula_structural   Ti3Fe
_chemical_formula_sum   'Ti6 Fe2'
_cell_volume   630.95473619
_cell_formula_units_Z   2
loop_
 _symmetry_equiv_pos_site_id
 _symmetry_equiv_pos_as_xyz
  1  'x, y, z'
loop_
 _atom_site_type_symbol
 _atom_site_label
 _atom_site_symmetry_multiplicity
 _atom_site_fract_x
 _atom_site_fract_y
 _atom_site_fract_z
 _atom_site_occupancy
  Ti  Ti0  1  0.40226900  0.28475100  0.69670000  1.0
  Ti  Ti1  1  0.09800000  0.28808100  0.30423400  1.0
  Ti  Ti2  1  0.59773100  0.78475100  0.30330000  1.0
  Ti  Ti3  1  0.90200000  0.78808100  0.69576600  1.0
  Ti  Ti4  1  0.20862400  0.29458700  0.09682900  1.0
  Ti  Ti5  1  0.79137600  0.79458700  0.90317100  1.0
  Fe  Fe6  1  0.30225500  0.29625100  0.90360500  1.0
  Fe  Fe7  1  0.69774500  0.79625100  0.09639500  1.0
