# generated using pymatgen
data_W
_symmetry_space_group_name_H-M   'P 1'
_cell_length_a   3.85529600
_cell_length_b   8.34198053
_cell_length_c   8.46341033
_cell_angle_alpha   101.39399774
_cell_angle_beta   103.16537998
_cell_angle_gamma   90.00000000
_symmetry_Int_Tables_number   1
_chemical_formula_structural   W
_chemical_formula_sum   W2
_cell_volume   259.52384108
_cell_formula_units_Z   2
loop_
 _symmetry_equiv_pos_site_id
 _symmetry_equiv_pos_as_xyz
  1  'x, y, z'
loop_
 _atom_site_type_symbol
 _atom_site_label
 _atom_site_symmetry_multiplicity
 _atom_site_fract_x
 _atom_site_fract_y
 _atom_site_fract_z
 _atom_site_occupancy
  W  W0  1  0.00397000  0.70279200  0.00794000  1.0
  W  W1  1  0.99603000  0.29720800  0.99206000  1.0
