# generated using pymatgen
data_W
_symmetry_space_group_name_H-M   'P 1'
_cell_length_a   5.48650800
_cell_length_b   5.51803500
_cell_length_c   17.10778100
_cell_angle_alpha   90.00000000
_cell_angle_beta   90.00000000
_cell_angle_gamma   90.00000000
_symmetry_Int_Tables_number   1
_chemical_formula_structural   W
_chemical_formula_sum   W4
_cell_volume   517.93367601
_cell_formula_units_Z   4
loop_
 _symmetry_equiv_pos_site_id
 _symmetry_equiv_pos_as_xyz
  1  'x, y, z'
loop_
 _atom_site_type_symbol
 _atom_site_label
 _atom_site_symmetry_multiplicity
 _atom_site_fract_x
 _atom_site_fract_y
 _atom_site_fract_z
 _atom_site_occupancy
  W  W0  1  0.49715000  0.97429300  0.75020200  1.0
  W  W1  1  0.50285000  0.47429300  0.24979800  1.0
  W  W2  1  0.00285000  0.47429300  0.75020200  1.0
  W  W3  1  0.99715000  0.97429300  0.24979800  1.0
