# generated using pymatgen
data_V
_symmetry_space_group_name_H-M   'P 1'
_cell_length_a   5.18804000
_cell_length_b   5.18804000
_cell_length_c   6.91957675
_cell_angle_alpha   112.01697728
_cell_angle_beta   112.01697727
_cell_angle_gamma   90.00000001
_symmetry_Int_Tables_number   1
_chemical_formula_structural   V
_chemical_formula_sum   V2
_cell_volume   157.91699206
_cell_formula_units_Z   2
loop_
 _symmetry_equiv_pos_site_id
 _symmetry_equiv_pos_as_xyz
  1  'x, y, z'
loop_
 _atom_site_type_symbol
 _atom_site_label
 _atom_site_symmetry_multiplicity
 _atom_site_fract_x
 _atom_site_fract_y
 _atom_site_fract_z
 _atom_site_occupancy
  V  V0  1  0.50000000  0.50000000  0.00000000  1.0
  V  V1  1  0.25000000  0.75000000  0.50000000  1.0
