# generated using pymatgen
data_Ni
_symmetry_space_group_name_H-M   'P 1'
_cell_length_a   9.30712570
_cell_length_b   9.30712570
_cell_length_c   14.92818341
_cell_angle_alpha   72.67401993
_cell_angle_beta   72.67401993
_cell_angle_gamma   64.59910441
_symmetry_Int_Tables_number   1
_chemical_formula_structural   Ni
_chemical_formula_sum   Ni16
_cell_volume   1093.20875419
_cell_formula_units_Z   16
loop_
 _symmetry_equiv_pos_site_id
 _symmetry_equiv_pos_as_xyz
  1  'x, y, z'
loop_
 _atom_site_type_symbol
 _atom_site_label
 _atom_site_symmetry_multiplicity
 _atom_site_fract_x
 _atom_site_fract_y
 _atom_site_fract_z
 _atom_site_occupancy
  Ni  Ni0  1  0.18528500  0.95322700  0.46607400  1.0
  Ni  Ni1  1  0.12233500  0.41000900  0.41704600  1.0
  Ni  Ni2  1  0.13156900  0.31713300  0.75818000  1.0
  Ni  Ni3  1  0.10400300  0.37589400  0.08966200  1.0
  Ni  Ni4  1  0.86843000  0.68286700  0.24182000  1.0
  Ni  Ni5  1  0.37589400  0.10400300  0.58966200  1.0
  Ni  Ni6  1  0.31713300  0.13156900  0.25818000  1.0
  Ni  Ni7  1  0.58999100  0.87766500  0.08295400  1.0
  Ni  Ni8  1  0.04677300  0.81471500  0.03392600  1.0
  Ni  Ni9  1  0.87766500  0.58999100  0.58295400  1.0
  Ni  Ni10  1  0.62410600  0.89599700  0.41033800  1.0
  Ni  Ni11  1  0.81471500  0.04677300  0.53392600  1.0
  Ni  Ni12  1  0.89599700  0.62410600  0.91033800  1.0
  Ni  Ni13  1  0.68286700  0.86843100  0.74182000  1.0
  Ni  Ni14  1  0.41000900  0.12233500  0.91704600  1.0
  Ni  Ni15  1  0.95322700  0.18528500  0.96607400  1.0
