# generated using pymatgen
data_Tb2Rh
_symmetry_space_group_name_H-M   'P 1'
_cell_length_a   3.98847250
_cell_length_b   8.17461600
_cell_length_c   8.17461589
_cell_angle_alpha   120.00000043
_cell_angle_beta   90.00000000
_cell_angle_gamma   90.00000000
_symmetry_Int_Tables_number   1
_chemical_formula_structural   Tb2Rh
_chemical_formula_sum   'Tb4 Rh2'
_cell_volume   230.81920863
_cell_formula_units_Z   2
loop_
 _symmetry_equiv_pos_site_id
 _symmetry_equiv_pos_as_xyz
  1  'x, y, z'
loop_
 _atom_site_type_symbol
 _atom_site_label
 _atom_site_symmetry_multiplicity
 _atom_site_fract_x
 _atom_site_fract_y
 _atom_site_fract_z
 _atom_site_occupancy
  Rh  Rh0  1  0.00000000  0.33333333  0.66666667  1.0
  Rh  Rh1  1  0.00000000  0.66666667  0.33333333  1.0
  Tb  Tb2  1  0.50000000  0.00000000  0.00000000  1.0
  Tb  Tb3  1  0.50000000  0.50000000  0.00000000  1.0
  Tb  Tb4  1  0.50000000  0.50000000  0.50000000  1.0
  Tb  Tb5  1  0.50000000  0.00000000  0.50000000  1.0
