# generated using pymatgen
data_Fe2Co
_symmetry_space_group_name_H-M   'P 1'
_cell_length_a   5.88848800
_cell_length_b   5.93291387
_cell_length_c   5.91475600
_cell_angle_alpha   119.89880999
_cell_angle_beta   90.00000000
_cell_angle_gamma   119.75260539
_symmetry_Int_Tables_number   1
_chemical_formula_structural   Fe2Co
_chemical_formula_sum   'Fe4 Co2'
_cell_volume   146.88087073
_cell_formula_units_Z   2
loop_
 _symmetry_equiv_pos_site_id
 _symmetry_equiv_pos_as_xyz
  1  'x, y, z'
loop_
 _atom_site_type_symbol
 _atom_site_label
 _atom_site_symmetry_multiplicity
 _atom_site_fract_x
 _atom_site_fract_y
 _atom_site_fract_z
 _atom_site_occupancy
  Fe  Fe0  1  0.00000000  0.00000000  0.50000000  1.0
  Fe  Fe1  1  0.50000000  0.50000000  0.00000000  1.0
  Fe  Fe2  1  0.00000000  0.00000000  0.00000000  1.0
  Fe  Fe3  1  0.00000000  0.50000000  0.00000000  1.0
  Co  Co4  1  0.62303800  0.24607600  0.37303800  1.0
  Co  Co5  1  0.37696200  0.75392400  0.62696200  1.0
