# generated using pymatgen
data_Fe2Co
_symmetry_space_group_name_H-M   'P 1'
_cell_length_a   6.03930799
_cell_length_b   6.03930700
_cell_length_c   14.72946400
_cell_angle_alpha   90.00000000
_cell_angle_beta   90.00000000
_cell_angle_gamma   120.00000545
_symmetry_Int_Tables_number   1
_chemical_formula_structural   Fe2Co
_chemical_formula_sum   'Fe12 Co6'
_cell_volume   465.25584363
_cell_formula_units_Z   6
loop_
 _symmetry_equiv_pos_site_id
 _symmetry_equiv_pos_as_xyz
  1  'x, y, z'
loop_
 _atom_site_type_symbol
 _atom_site_label
 _atom_site_symmetry_multiplicity
 _atom_site_fract_x
 _atom_site_fract_y
 _atom_site_fract_z
 _atom_site_occupancy
  Fe  Fe0  1  0.33372400  0.99747000  0.12356300  1.0
  Fe  Fe1  1  0.83367700  0.50098500  0.00071800  1.0
  Fe  Fe2  1  0.66374600  0.66627600  0.79023000  1.0
  Fe  Fe3  1  0.33269200  0.49901500  0.99928200  1.0
  Fe  Fe4  1  0.16632300  0.66730700  0.66594800  1.0
  Fe  Fe5  1  0.00253000  0.33625400  0.45689600  1.0
  Fe  Fe6  1  0.66730800  0.16632400  0.66738500  1.0
  Fe  Fe7  1  0.33625400  0.00253000  0.87643700  1.0
  Fe  Fe8  1  0.50098400  0.83367600  0.33261500  1.0
  Fe  Fe9  1  0.66627600  0.66374600  0.54310400  1.0
  Fe  Fe10  1  0.49901600  0.33269300  0.33405200  1.0
  Fe  Fe11  1  0.99747000  0.33372400  0.20977000  1.0
  Co  Co12  1  0.67004900  0.67004900  0.16666700  1.0
  Co  Co13  1  0.00000000  0.32995100  0.83333300  1.0
  Co  Co14  1  0.16660000  0.16660000  0.66666667  1.0
  Co  Co15  1  0.83340000  1.00000000  0.00000000  1.0
  Co  Co16  1  0.32995100  1.00000000  0.50000000  1.0
  Co  Co17  1  0.00000000  0.83340000  0.33333333  1.0
