# generated using pymatgen
data_Fe2Cu
_symmetry_space_group_name_H-M   'P 1'
_cell_length_a   5.89300500
_cell_length_b   5.95148132
_cell_length_c   10.83402775
_cell_angle_alpha   89.35206315
_cell_angle_beta   89.50599489
_cell_angle_gamma   60.55252271
_symmetry_Int_Tables_number   1
_chemical_formula_structural   Fe2Cu
_chemical_formula_sum   'Fe8 Cu4'
_cell_volume   330.85914979
_cell_formula_units_Z   4
loop_
 _symmetry_equiv_pos_site_id
 _symmetry_equiv_pos_as_xyz
  1  'x, y, z'
loop_
 _atom_site_type_symbol
 _atom_site_label
 _atom_site_symmetry_multiplicity
 _atom_site_fract_x
 _atom_site_fract_y
 _atom_site_fract_z
 _atom_site_occupancy
  Fe  Fe0  1  0.35795300  0.68410800  0.38042400  1.0
  Fe  Fe1  1  0.67593600  0.95811300  0.38074600  1.0
  Fe  Fe2  1  0.07173200  0.33260300  0.61208400  1.0
  Fe  Fe3  1  0.59140400  0.07645400  0.61298100  1.0
  Fe  Fe4  1  0.33297700  0.59005700  0.61093300  1.0
  Fe  Fe5  1  0.07565800  0.33110300  0.88640400  1.0
  Fe  Fe6  1  0.59083000  0.07776200  0.88420500  1.0
  Fe  Fe7  1  0.33407700  0.58960800  0.88350900  1.0
  Cu  Cu8  1  0.94575900  0.36960600  0.12579200  1.0
  Cu  Cu9  1  0.37869400  0.68220600  0.11842700  1.0
  Cu  Cu10  1  0.69312900  0.93703800  0.11624900  1.0
  Cu  Cu11  1  0.94267200  0.37984300  0.37828000  1.0
