# generated using pymatgen
data_Fe2Cu
_symmetry_space_group_name_H-M   'P 1'
_cell_length_a   6.20731889
_cell_length_b   6.37779644
_cell_length_c   10.99529246
_cell_angle_alpha   89.98835930
_cell_angle_beta   90.03185733
_cell_angle_gamma   89.92033728
_symmetry_Int_Tables_number   1
_chemical_formula_structural   Fe2Cu
_chemical_formula_sum   'Fe8 Cu4'
_cell_volume   435.29231555
_cell_formula_units_Z   4
loop_
 _symmetry_equiv_pos_site_id
 _symmetry_equiv_pos_as_xyz
  1  'x, y, z'
loop_
 _atom_site_type_symbol
 _atom_site_label
 _atom_site_symmetry_multiplicity
 _atom_site_fract_x
 _atom_site_fract_y
 _atom_site_fract_z
 _atom_site_occupancy
  Fe  Fe0  1  0.12828300  0.91960600  0.08386900  1.0
  Fe  Fe1  1  0.62853200  0.58339000  0.41754500  1.0
  Fe  Fe2  1  0.36878000  0.41812500  0.58341300  1.0
  Fe  Fe3  1  0.86515300  0.08321900  0.91784000  1.0
  Fe  Fe4  1  0.62852900  0.58349000  0.08247200  1.0
  Fe  Fe5  1  0.12830500  0.91967600  0.41603700  1.0
  Fe  Fe6  1  0.36876700  0.41812000  0.91656600  1.0
  Fe  Fe7  1  0.86525100  0.08319900  0.58225000  1.0
  Cu  Cu8  1  0.39060700  0.91523000  0.75020900  1.0
  Cu  Cu9  1  0.61321400  0.08400400  0.24987000  1.0
  Cu  Cu10  1  0.89113900  0.58386700  0.75005000  1.0
  Cu  Cu11  1  0.11327200  0.41573200  0.24989600  1.0
