# generated using pymatgen
data_Yb
_symmetry_space_group_name_H-M   'P 1'
_cell_length_a   3.54447900
_cell_length_b   10.37406600
_cell_length_c   12.11522300
_cell_angle_alpha   90.00000000
_cell_angle_beta   90.00000000
_cell_angle_gamma   90.00000000
_symmetry_Int_Tables_number   1
_chemical_formula_structural   Yb
_chemical_formula_sum   Yb8
_cell_volume   445.48473463
_cell_formula_units_Z   8
loop_
 _symmetry_equiv_pos_site_id
 _symmetry_equiv_pos_as_xyz
  1  'x, y, z'
loop_
 _atom_site_type_symbol
 _atom_site_label
 _atom_site_symmetry_multiplicity
 _atom_site_fract_x
 _atom_site_fract_y
 _atom_site_fract_z
 _atom_site_occupancy
  Yb  Yb0  1  0.25000000  0.57796400  0.39120200  1.0
  Yb  Yb1  1  0.25000000  0.57896400  0.89237200  1.0
  Yb  Yb2  1  0.75000000  0.92103600  0.39237200  1.0
  Yb  Yb3  1  0.75000000  0.92203600  0.89120200  1.0
  Yb  Yb4  1  0.25000000  0.07796400  0.10879800  1.0
  Yb  Yb5  1  0.25000000  0.07896400  0.60762800  1.0
  Yb  Yb6  1  0.75000000  0.42103600  0.10762800  1.0
  Yb  Yb7  1  0.75000000  0.42203600  0.60879800  1.0
