# generated using pymatgen
data_MnW
_symmetry_space_group_name_H-M   'P 1'
_cell_length_a   3.88234490
_cell_length_b   3.88234382
_cell_length_c   6.21765077
_cell_angle_alpha   108.18805949
_cell_angle_beta   108.18804605
_cell_angle_gamma   90.00083390
_symmetry_Int_Tables_number   1
_chemical_formula_structural   MnW
_chemical_formula_sum   'Mn1 W1'
_cell_volume   84.09103443
_cell_formula_units_Z   1
loop_
 _symmetry_equiv_pos_site_id
 _symmetry_equiv_pos_as_xyz
  1  'x, y, z'
loop_
 _atom_site_type_symbol
 _atom_site_label
 _atom_site_symmetry_multiplicity
 _atom_site_fract_x
 _atom_site_fract_y
 _atom_site_fract_z
 _atom_site_occupancy
  Mn  Mn0  1  0.99999200  0.00000200  0.99999750  1.0
  W  W1  1  0.75000750  0.24999450  0.50000100  1.0
