# generated using pymatgen
data_NbCo2
_symmetry_space_group_name_H-M   'P 1'
_cell_length_a   5.21472082
_cell_length_b   5.22288338
_cell_length_c   14.31262784
_cell_angle_alpha   90.08050155
_cell_angle_beta   90.06389233
_cell_angle_gamma   60.05604724
_symmetry_Int_Tables_number   1
_chemical_formula_structural   NbCo2
_chemical_formula_sum   'Nb4 Co8'
_cell_volume   337.78154891
_cell_formula_units_Z   4
loop_
 _symmetry_equiv_pos_site_id
 _symmetry_equiv_pos_as_xyz
  1  'x, y, z'
loop_
 _atom_site_type_symbol
 _atom_site_label
 _atom_site_symmetry_multiplicity
 _atom_site_fract_x
 _atom_site_fract_y
 _atom_site_fract_z
 _atom_site_occupancy
  Nb  Nb0  1  0.00093300  0.00006900  0.64284900  1.0
  Nb  Nb1  1  0.00094000  0.99828600  0.85894900  1.0
  Nb  Nb2  1  0.99893500  0.00051300  0.35850600  1.0
  Nb  Nb3  1  0.00013800  0.00021300  0.14139100  1.0
  Co  Co4  1  0.33352100  0.33333333  0.51344300  1.0
  Co  Co5  1  0.66637900  0.66641800  0.98604500  1.0
  Co  Co6  1  0.33350500  0.33416400  0.80561400  1.0
  Co  Co7  1  0.66651800  0.66654500  0.19517300  1.0
  Co  Co8  1  0.66842000  0.66514200  0.48717000  1.0
  Co  Co9  1  0.33604800  0.33204600  0.01218500  1.0
  Co  Co10  1  0.67251900  0.66314000  0.68894700  1.0
  Co  Co11  1  0.33326900  0.33376600  0.30459600  1.0
