# generated using pymatgen
data_Cr
_symmetry_space_group_name_H-M   'P 1'
_cell_length_a   5.33247600
_cell_length_b   8.73808600
_cell_length_c   9.31256263
_cell_angle_alpha   90.00000000
_cell_angle_beta   102.19579895
_cell_angle_gamma   90.00000000
_symmetry_Int_Tables_number   1
_chemical_formula_structural   Cr
_chemical_formula_sum   Cr4
_cell_volume   424.13167861
_cell_formula_units_Z   4
loop_
 _symmetry_equiv_pos_site_id
 _symmetry_equiv_pos_as_xyz
  1  'x, y, z'
loop_
 _atom_site_type_symbol
 _atom_site_label
 _atom_site_symmetry_multiplicity
 _atom_site_fract_x
 _atom_site_fract_y
 _atom_site_fract_z
 _atom_site_occupancy
  Cr  Cr0  1  0.48638400  0.65633000  0.24972000  1.0
  Cr  Cr1  1  0.98638400  0.84367000  0.24972000  1.0
  Cr  Cr2  1  0.51361600  0.34367000  0.75028000  1.0
  Cr  Cr3  1  0.01361600  0.15633000  0.75028000  1.0
