# generated using pymatgen
data_Cr
_symmetry_space_group_name_H-M   'P 1'
_cell_length_a   5.28162700
_cell_length_b   8.74929500
_cell_length_c   18.17071500
_cell_angle_alpha   90.00000000
_cell_angle_beta   90.00000000
_cell_angle_gamma   90.00000000
_symmetry_Int_Tables_number   1
_chemical_formula_structural   Cr
_chemical_formula_sum   Cr8
_cell_volume   839.67805633
_cell_formula_units_Z   8
loop_
 _symmetry_equiv_pos_site_id
 _symmetry_equiv_pos_as_xyz
  1  'x, y, z'
loop_
 _atom_site_type_symbol
 _atom_site_label
 _atom_site_symmetry_multiplicity
 _atom_site_fract_x
 _atom_site_fract_y
 _atom_site_fract_z
 _atom_site_occupancy
  Cr  Cr0  1  0.12516300  0.15472400  0.12480500  1.0
  Cr  Cr1  1  0.62516300  0.34527600  0.12480500  1.0
  Cr  Cr2  1  0.62516300  0.84527600  0.37519500  1.0
  Cr  Cr3  1  0.12516300  0.65472400  0.37519500  1.0
  Cr  Cr4  1  0.87483700  0.34527600  0.62480500  1.0
  Cr  Cr5  1  0.37483700  0.15472400  0.62480500  1.0
  Cr  Cr6  1  0.87483700  0.84527600  0.87519500  1.0
  Cr  Cr7  1  0.37483700  0.65472400  0.87519500  1.0
