# generated using pymatgen
data_Cr
_symmetry_space_group_name_H-M   'P 1'
_cell_length_a   5.21322700
_cell_length_b   8.79816131
_cell_length_c   18.33961303
_cell_angle_alpha   89.91345259
_cell_angle_beta   90.02743008
_cell_angle_gamma   89.98471576
_symmetry_Int_Tables_number   1
_chemical_formula_structural   Cr
_chemical_formula_sum   Cr8
_cell_volume   841.17849852
_cell_formula_units_Z   8
loop_
 _symmetry_equiv_pos_site_id
 _symmetry_equiv_pos_as_xyz
  1  'x, y, z'
loop_
 _atom_site_type_symbol
 _atom_site_label
 _atom_site_symmetry_multiplicity
 _atom_site_fract_x
 _atom_site_fract_y
 _atom_site_fract_z
 _atom_site_occupancy
  Cr  Cr0  1  0.62157300  0.65375900  0.87466900  1.0
  Cr  Cr1  1  0.12357600  0.84735000  0.87486500  1.0
  Cr  Cr2  1  0.62535900  0.15267200  0.62520400  1.0
  Cr  Cr3  1  0.64357000  0.50920400  0.62388000  1.0
  Cr  Cr4  1  0.85278700  0.01315400  0.37680900  1.0
  Cr  Cr5  1  0.87475100  0.65232700  0.37731200  1.0
  Cr  Cr6  1  0.35715000  0.99546500  0.12346300  1.0
  Cr  Cr7  1  0.85627600  0.50373900  0.12387700  1.0
