# generated using pymatgen
data_Cr
_symmetry_space_group_name_H-M   'P 1'
_cell_length_a   5.35538286
_cell_length_b   6.54187586
_cell_length_c   6.54279304
_cell_angle_alpha   83.68809986
_cell_angle_beta   74.80663331
_cell_angle_gamma   74.76364963
_symmetry_Int_Tables_number   1
_chemical_formula_structural   Cr
_chemical_formula_sum   Cr2
_cell_volume   213.22660021
_cell_formula_units_Z   2
loop_
 _symmetry_equiv_pos_site_id
 _symmetry_equiv_pos_as_xyz
  1  'x, y, z'
loop_
 _atom_site_type_symbol
 _atom_site_label
 _atom_site_symmetry_multiplicity
 _atom_site_fract_x
 _atom_site_fract_y
 _atom_site_fract_z
 _atom_site_occupancy
  Cr  Cr0  1  0.24959800  0.90695850  0.09306800  1.0
  Cr  Cr1  1  0.75040200  0.09304250  0.90693250  1.0
