# generated using pymatgen
data_Yb
_symmetry_space_group_name_H-M   'P 1'
_cell_length_a   8.51553500
_cell_length_b   8.57633757
_cell_length_c   9.89737385
_cell_angle_alpha   94.52343039
_cell_angle_beta   113.33686069
_cell_angle_gamma   102.84506464
_symmetry_Int_Tables_number   1
_chemical_formula_structural   Yb
_chemical_formula_sum   Yb8
_cell_volume   635.73392328
_cell_formula_units_Z   8
loop_
 _symmetry_equiv_pos_site_id
 _symmetry_equiv_pos_as_xyz
  1  'x, y, z'
loop_
 _atom_site_type_symbol
 _atom_site_label
 _atom_site_symmetry_multiplicity
 _atom_site_fract_x
 _atom_site_fract_y
 _atom_site_fract_z
 _atom_site_occupancy
  Yb  Yb0  1  0.13343800  0.93311900  0.69708800  1.0
  Yb  Yb1  1  0.39159600  0.84174800  0.13847500  1.0
  Yb  Yb2  1  0.59636900  0.65461700  0.43598900  1.0
  Yb  Yb3  1  0.11070000  0.42139100  0.20411200  1.0
  Yb  Yb4  1  0.85476800  0.55419400  0.79333200  1.0
  Yb  Yb5  1  0.34525400  0.28818900  0.56348400  1.0
  Yb  Yb6  1  0.64755800  0.22922700  0.93977100  1.0
  Yb  Yb7  1  0.85127100  0.06708400  0.28172400  1.0
