# generated using pymatgen
data_Ho3Cu4
_symmetry_space_group_name_H-M   'P 1'
_cell_length_a   4.46496800
_cell_length_b   6.93684600
_cell_length_c   8.41496233
_cell_angle_alpha   114.34143297
_cell_angle_beta   105.38474073
_cell_angle_gamma   90.00000000
_symmetry_Int_Tables_number   1
_chemical_formula_structural   Ho3Cu4
_chemical_formula_sum   'Ho3 Cu4'
_cell_volume   227.17579102
_cell_formula_units_Z   1
loop_
 _symmetry_equiv_pos_site_id
 _symmetry_equiv_pos_as_xyz
  1  'x, y, z'
loop_
 _atom_site_type_symbol
 _atom_site_label
 _atom_site_symmetry_multiplicity
 _atom_site_fract_x
 _atom_site_fract_y
 _atom_site_fract_z
 _atom_site_occupancy
  Ho  Ho0  1  0.00000000  0.00000000  0.00000000  1.0
  Ho  Ho1  1  0.13094700  0.63094700  0.26189400  1.0
  Ho  Ho2  1  0.86905300  0.36905300  0.73810600  1.0
  Cu  Cu3  1  0.67147900  0.36019900  0.34295800  1.0
  Cu  Cu4  1  0.67147900  0.98275900  0.34295800  1.0
  Cu  Cu5  1  0.32852100  0.63980100  0.65704200  1.0
  Cu  Cu6  1  0.32852100  0.01724100  0.65704200  1.0
