# generated using pymatgen
data_Co
_symmetry_space_group_name_H-M   'P 1'
_cell_length_a   6.32688085
_cell_length_b   6.33959982
_cell_length_c   6.36734512
_cell_angle_alpha   91.98641778
_cell_angle_beta   92.02393238
_cell_angle_gamma   92.10431583
_symmetry_Int_Tables_number   1
_chemical_formula_structural   Co
_chemical_formula_sum   Co4
_cell_volume   254.89669332
_cell_formula_units_Z   4
loop_
 _symmetry_equiv_pos_site_id
 _symmetry_equiv_pos_as_xyz
  1  'x, y, z'
loop_
 _atom_site_type_symbol
 _atom_site_label
 _atom_site_symmetry_multiplicity
 _atom_site_fract_x
 _atom_site_fract_y
 _atom_site_fract_z
 _atom_site_occupancy
  Co  Co0  1  0.49877000  0.49873200  0.49877200  1.0
  Co  Co1  1  0.24641400  0.25776600  0.24998900  1.0
  Co  Co2  1  0.99879800  0.99875500  0.99871000  1.0
  Co  Co3  1  0.75609000  0.74479700  0.75313300  1.0
