# generated using pymatgen
data_Fe2Cu
_symmetry_space_group_name_H-M   'P 1'
_cell_length_a   5.99977406
_cell_length_b   5.99978472
_cell_length_c   5.99984258
_cell_angle_alpha   119.55738810
_cell_angle_beta   119.55914130
_cell_angle_gamma   90.76301512
_symmetry_Int_Tables_number   1
_chemical_formula_structural   Fe2Cu
_chemical_formula_sum   'Fe4 Cu2'
_cell_volume   153.72978474
_cell_formula_units_Z   2
loop_
 _symmetry_equiv_pos_site_id
 _symmetry_equiv_pos_as_xyz
  1  'x, y, z'
loop_
 _atom_site_type_symbol
 _atom_site_label
 _atom_site_symmetry_multiplicity
 _atom_site_fract_x
 _atom_site_fract_y
 _atom_site_fract_z
 _atom_site_occupancy
  Fe  Fe0  1  0.37501000  0.12502400  0.75002000  1.0
  Fe  Fe1  1  0.87497500  0.62499800  0.24998900  1.0
  Fe  Fe2  1  0.37500900  0.62498800  0.75001500  1.0
  Fe  Fe3  1  0.37500400  0.62499200  0.24997700  1.0
  Cu  Cu4  1  0.00000100  0.99999500  0.00000100  1.0
  Cu  Cu5  1  0.74999400  0.25001300  0.49999900  1.0
