# generated using pymatgen
data_CoRe
_symmetry_space_group_name_H-M   'P 1'
_cell_length_a   5.62627908
_cell_length_b   5.63311147
_cell_length_c   5.65525017
_cell_angle_alpha   119.86227334
_cell_angle_beta   119.82545319
_cell_angle_gamma   90.01426191
_symmetry_Int_Tables_number   1
_chemical_formula_structural   CoRe
_chemical_formula_sum   'Co1 Re1'
_cell_volume   127.31816614
_cell_formula_units_Z   1
loop_
 _symmetry_equiv_pos_site_id
 _symmetry_equiv_pos_as_xyz
  1  'x, y, z'
loop_
 _atom_site_type_symbol
 _atom_site_label
 _atom_site_symmetry_multiplicity
 _atom_site_fract_x
 _atom_site_fract_y
 _atom_site_fract_z
 _atom_site_occupancy
  Co  Co0  1  0.00008200  0.00004900  0.00013100  1.0
  Re  Re1  1  0.49994150  0.49995000  0.99991100  1.0
