# generated using pymatgen
data_Co
_symmetry_space_group_name_H-M   'P 1'
_cell_length_a   5.49907325
_cell_length_b   6.25941608
_cell_length_c   9.21474296
_cell_angle_alpha   76.12506827
_cell_angle_beta   83.67965766
_cell_angle_gamma   76.44603168
_symmetry_Int_Tables_number   1
_chemical_formula_structural   Co
_chemical_formula_sum   Co4
_cell_volume   298.86150657
_cell_formula_units_Z   4
loop_
 _symmetry_equiv_pos_site_id
 _symmetry_equiv_pos_as_xyz
  1  'x, y, z'
loop_
 _atom_site_type_symbol
 _atom_site_label
 _atom_site_symmetry_multiplicity
 _atom_site_fract_x
 _atom_site_fract_y
 _atom_site_fract_z
 _atom_site_occupancy
  Co  Co0  1  0.15126100  0.54604800  0.71276200  1.0
  Co  Co1  1  0.84874000  0.45395300  0.28723500  1.0
  Co  Co2  1  0.72301900  0.33456000  0.91401700  1.0
  Co  Co3  1  0.27698700  0.66545100  0.08599800  1.0
