# generated using pymatgen
data_Co
_symmetry_space_group_name_H-M   'P 1'
_cell_length_a   5.12129200
_cell_length_b   8.63873600
_cell_length_c   15.45884876
_cell_angle_alpha   93.70617582
_cell_angle_beta   90.00000000
_cell_angle_gamma   90.00000000
_symmetry_Int_Tables_number   1
_chemical_formula_structural   Co
_chemical_formula_sum   Co8
_cell_volume   682.49217936
_cell_formula_units_Z   8
loop_
 _symmetry_equiv_pos_site_id
 _symmetry_equiv_pos_as_xyz
  1  'x, y, z'
loop_
 _atom_site_type_symbol
 _atom_site_label
 _atom_site_symmetry_multiplicity
 _atom_site_fract_x
 _atom_site_fract_y
 _atom_site_fract_z
 _atom_site_occupancy
  Co  Co0  1  0.29671600  0.56890200  0.91717600  1.0
  Co  Co1  1  0.74096100  0.09001500  0.84749800  1.0
  Co  Co2  1  0.24096100  0.90998500  0.65250200  1.0
  Co  Co3  1  0.79671600  0.43109800  0.58282400  1.0
  Co  Co4  1  0.20328400  0.56890200  0.41717600  1.0
  Co  Co5  1  0.75903900  0.09001500  0.34749800  1.0
  Co  Co6  1  0.25903900  0.90998500  0.15250200  1.0
  Co  Co7  1  0.70328400  0.43109800  0.08282400  1.0
