# generated using pymatgen
data_Co
_symmetry_space_group_name_H-M   'P 1'
_cell_length_a   4.97257621
_cell_length_b   7.28377813
_cell_length_c   9.60198100
_cell_angle_alpha   90.00093679
_cell_angle_beta   89.99799416
_cell_angle_gamma   89.94277398
_symmetry_Int_Tables_number   1
_chemical_formula_structural   Co
_chemical_formula_sum   Co4
_cell_volume   347.77533814
_cell_formula_units_Z   4
loop_
 _symmetry_equiv_pos_site_id
 _symmetry_equiv_pos_as_xyz
  1  'x, y, z'
loop_
 _atom_site_type_symbol
 _atom_site_label
 _atom_site_symmetry_multiplicity
 _atom_site_fract_x
 _atom_site_fract_y
 _atom_site_fract_z
 _atom_site_occupancy
  Co  Co0  1  0.70829400  0.91575600  0.52331800  1.0
  Co  Co1  1  0.79278700  0.41641100  0.07254500  1.0
  Co  Co2  1  0.29168100  0.08423000  0.02331000  1.0
  Co  Co3  1  0.20720800  0.58356100  0.57255000  1.0
