# generated using pymatgen
data_Co
_symmetry_space_group_name_H-M   'P 1'
_cell_length_a   4.54832761
_cell_length_b   5.16860866
_cell_length_c   7.62412106
_cell_angle_alpha   90.32758471
_cell_angle_beta   103.50375407
_cell_angle_gamma   105.13504058
_symmetry_Int_Tables_number   1
_chemical_formula_structural   Co
_chemical_formula_sum   Co2
_cell_volume   167.80668008
_cell_formula_units_Z   2
loop_
 _symmetry_equiv_pos_site_id
 _symmetry_equiv_pos_as_xyz
  1  'x, y, z'
loop_
 _atom_site_type_symbol
 _atom_site_label
 _atom_site_symmetry_multiplicity
 _atom_site_fract_x
 _atom_site_fract_y
 _atom_site_fract_z
 _atom_site_occupancy
  Co  Co0  1  0.93408050  0.76847000  0.60022900  1.0
  Co  Co1  1  0.06591750  0.23152200  0.39979000  1.0
