# generated using pymatgen
data_Co
_symmetry_space_group_name_H-M   'P 1'
_cell_length_a   4.92520700
_cell_length_b   6.41642801
_cell_length_c   9.09885900
_cell_angle_alpha   89.99766059
_cell_angle_beta   89.99976066
_cell_angle_gamma   90.00500468
_symmetry_Int_Tables_number   1
_chemical_formula_structural   Co
_chemical_formula_sum   Co4
_cell_volume   287.54428947
_cell_formula_units_Z   4
loop_
 _symmetry_equiv_pos_site_id
 _symmetry_equiv_pos_as_xyz
  1  'x, y, z'
loop_
 _atom_site_type_symbol
 _atom_site_label
 _atom_site_symmetry_multiplicity
 _atom_site_fract_x
 _atom_site_fract_y
 _atom_site_fract_z
 _atom_site_occupancy
  Co  Co0  1  0.00000400  0.49999800  0.00000000  1.0
  Co  Co1  1  0.50000000  0.49999800  0.50000100  1.0
  Co  Co2  1  0.00000100  0.99999900  0.00000000  1.0
  Co  Co3  1  0.50000300  0.00000100  0.50000000  1.0
