# generated using pymatgen
data_Co
_symmetry_space_group_name_H-M   'P 1'
_cell_length_a   8.58993771
_cell_length_b   8.58993771
_cell_length_c   8.58993846
_cell_angle_alpha   107.85234099
_cell_angle_beta   107.85234099
_cell_angle_gamma   107.85234577
_symmetry_Int_Tables_number   1
_chemical_formula_structural   Co
_chemical_formula_sum   Co6
_cell_volume   515.09060911
_cell_formula_units_Z   6
loop_
 _symmetry_equiv_pos_site_id
 _symmetry_equiv_pos_as_xyz
  1  'x, y, z'
loop_
 _atom_site_type_symbol
 _atom_site_label
 _atom_site_symmetry_multiplicity
 _atom_site_fract_x
 _atom_site_fract_y
 _atom_site_fract_z
 _atom_site_occupancy
  Co  Co0  1  0.76933700  0.53491600  0.94537500  1.0
  Co  Co1  1  0.45624900  0.05135300  0.23500100  1.0
  Co  Co2  1  0.94537500  0.76933700  0.53491600  1.0
  Co  Co3  1  0.23500100  0.45624900  0.05135300  1.0
  Co  Co4  1  0.53491600  0.94537500  0.76933700  1.0
  Co  Co5  1  0.05135300  0.23500100  0.45624900  1.0
