# generated using pymatgen
data_Co
_symmetry_space_group_name_H-M   'P 1'
_cell_length_a   10.85827400
_cell_length_b   10.85827389
_cell_length_c   11.58032200
_cell_angle_alpha   90.00000000
_cell_angle_beta   90.00000000
_cell_angle_gamma   120.00000033
_symmetry_Int_Tables_number   1
_chemical_formula_structural   Co
_chemical_formula_sum   Co12
_cell_volume   1182.42296045
_cell_formula_units_Z   12
loop_
 _symmetry_equiv_pos_site_id
 _symmetry_equiv_pos_as_xyz
  1  'x, y, z'
loop_
 _atom_site_type_symbol
 _atom_site_label
 _atom_site_symmetry_multiplicity
 _atom_site_fract_x
 _atom_site_fract_y
 _atom_site_fract_z
 _atom_site_occupancy
  Co  Co0  1  1.00000000  0.75195100  0.66666667  1.0
  Co  Co1  1  0.75377400  0.50754800  0.33333333  1.0
  Co  Co2  1  1.00000000  0.24804900  0.66666667  1.0
  Co  Co3  1  0.75377400  0.24622600  0.00000000  1.0
  Co  Co4  1  0.75195100  0.00000000  0.33333333  1.0
  Co  Co5  1  0.49245200  0.24622600  0.66666667  1.0
  Co  Co6  1  0.75195100  0.75195100  1.00000000  1.0
  Co  Co7  1  0.50754800  0.75377400  0.66666667  1.0
  Co  Co8  1  0.24804900  0.00000000  0.33333333  1.0
  Co  Co9  1  0.24622600  0.75377400  1.00000000  1.0
  Co  Co10  1  0.24622600  0.49245200  0.33333333  1.0
  Co  Co11  1  0.24804900  0.24804900  1.00000000  1.0
