# generated using pymatgen
data_Co
_symmetry_space_group_name_H-M   'P 1'
_cell_length_a   5.13455382
_cell_length_b   5.13481390
_cell_length_c   8.44474660
_cell_angle_alpha   72.31982262
_cell_angle_beta   89.98720981
_cell_angle_gamma   60.00824007
_symmetry_Int_Tables_number   1
_chemical_formula_structural   Co
_chemical_formula_sum   Co2
_cell_volume   180.59787092
_cell_formula_units_Z   2
loop_
 _symmetry_equiv_pos_site_id
 _symmetry_equiv_pos_as_xyz
  1  'x, y, z'
loop_
 _atom_site_type_symbol
 _atom_site_label
 _atom_site_symmetry_multiplicity
 _atom_site_fract_x
 _atom_site_fract_y
 _atom_site_fract_z
 _atom_site_occupancy
  Co  Co0  1  0.98127000  0.03747600  0.94385700  1.0
  Co  Co1  1  0.44323700  0.11356700  0.32969200  1.0
