# generated using pymatgen
data_Co
_symmetry_space_group_name_H-M   'P 1'
_cell_length_a   5.09009003
_cell_length_b   5.10143045
_cell_length_c   8.31135944
_cell_angle_alpha   91.07942514
_cell_angle_beta   106.56212132
_cell_angle_gamma   119.59368664
_symmetry_Int_Tables_number   1
_chemical_formula_structural   Co
_chemical_formula_sum   Co2
_cell_volume   176.55003968
_cell_formula_units_Z   2
loop_
 _symmetry_equiv_pos_site_id
 _symmetry_equiv_pos_as_xyz
  1  'x, y, z'
loop_
 _atom_site_type_symbol
 _atom_site_label
 _atom_site_symmetry_multiplicity
 _atom_site_fract_x
 _atom_site_fract_y
 _atom_site_fract_z
 _atom_site_occupancy
  Co  Co0  1  0.96339700  0.98222900  0.94495800  1.0
  Co  Co1  1  0.88731300  0.44112000  0.32778500  1.0
