# generated using pymatgen
data_Co
_symmetry_space_group_name_H-M   'P 1'
_cell_length_a   7.96233600
_cell_length_b   8.66611500
_cell_length_c   15.01678057
_cell_angle_alpha   89.57476798
_cell_angle_beta   90.00000000
_cell_angle_gamma   90.00000000
_symmetry_Int_Tables_number   1
_chemical_formula_structural   Co
_chemical_formula_sum   Co12
_cell_volume   1036.16715596
_cell_formula_units_Z   12
loop_
 _symmetry_equiv_pos_site_id
 _symmetry_equiv_pos_as_xyz
  1  'x, y, z'
loop_
 _atom_site_type_symbol
 _atom_site_label
 _atom_site_symmetry_multiplicity
 _atom_site_fract_x
 _atom_site_fract_y
 _atom_site_fract_z
 _atom_site_occupancy
  Co  Co0  1  0.27251200  0.04111300  0.59490600  1.0
  Co  Co1  1  0.21628400  0.08249300  0.22713500  1.0
  Co  Co2  1  0.28039900  0.11097900  0.92792000  1.0
  Co  Co3  1  0.78039900  0.38902100  0.57208000  1.0
  Co  Co4  1  0.71628400  0.41750700  0.27286500  1.0
  Co  Co5  1  0.77251200  0.45888700  0.90509400  1.0
  Co  Co6  1  0.22748800  0.54111300  0.09490600  1.0
  Co  Co7  1  0.28371600  0.58249300  0.72713500  1.0
  Co  Co8  1  0.21960100  0.61097900  0.42792000  1.0
  Co  Co9  1  0.71960100  0.88902100  0.07208000  1.0
  Co  Co10  1  0.78371600  0.91750700  0.77286500  1.0
  Co  Co11  1  0.72748800  0.95888700  0.40509400  1.0
