# generated using pymatgen
data_Co
_symmetry_space_group_name_H-M   'P 1'
_cell_length_a   5.03629500
_cell_length_b   6.80037500
_cell_length_c   10.19458800
_cell_angle_alpha   90.00331496
_cell_angle_beta   89.99957028
_cell_angle_gamma   89.99985044
_symmetry_Int_Tables_number   1
_chemical_formula_structural   Co
_chemical_formula_sum   Co4
_cell_volume   349.15133050
_cell_formula_units_Z   4
loop_
 _symmetry_equiv_pos_site_id
 _symmetry_equiv_pos_as_xyz
  1  'x, y, z'
loop_
 _atom_site_type_symbol
 _atom_site_label
 _atom_site_symmetry_multiplicity
 _atom_site_fract_x
 _atom_site_fract_y
 _atom_site_fract_z
 _atom_site_occupancy
  Co  Co0  1  0.18681600  0.71544700  0.65472000  1.0
  Co  Co1  1  0.68686300  0.21540300  0.84529700  1.0
  Co  Co2  1  0.81317100  0.21545400  0.34529400  1.0
  Co  Co3  1  0.31317900  0.71544900  0.15471900  1.0
