# generated using pymatgen
data_Co
_symmetry_space_group_name_H-M   'P 1'
_cell_length_a   7.52190300
_cell_length_b   8.49533000
_cell_length_c   14.63559885
_cell_angle_alpha   89.68666774
_cell_angle_beta   90.00000000
_cell_angle_gamma   90.00000000
_symmetry_Int_Tables_number   1
_chemical_formula_structural   Co
_chemical_formula_sum   Co12
_cell_volume   935.21612287
_cell_formula_units_Z   12
loop_
 _symmetry_equiv_pos_site_id
 _symmetry_equiv_pos_as_xyz
  1  'x, y, z'
loop_
 _atom_site_type_symbol
 _atom_site_label
 _atom_site_symmetry_multiplicity
 _atom_site_fract_x
 _atom_site_fract_y
 _atom_site_fract_z
 _atom_site_occupancy
  Co  Co0  1  0.04810300  0.75705700  0.92598100  1.0
  Co  Co1  1  0.95940200  0.75991600  0.58570200  1.0
  Co  Co2  1  0.59214300  0.74518700  0.25187400  1.0
  Co  Co3  1  0.09214300  0.75481300  0.24812600  1.0
  Co  Co4  1  0.45940200  0.74008400  0.91429800  1.0
  Co  Co5  1  0.54810300  0.74294300  0.57401900  1.0
  Co  Co6  1  0.45189700  0.25705700  0.42598100  1.0
  Co  Co7  1  0.54059800  0.25991600  0.08570200  1.0
  Co  Co8  1  0.90785700  0.24518700  0.75187400  1.0
  Co  Co9  1  0.40785700  0.25481300  0.74812600  1.0
  Co  Co10  1  0.04059800  0.24008400  0.41429800  1.0
  Co  Co11  1  0.95189700  0.24294300  0.07401900  1.0
