# generated using pymatgen
data_Co
_symmetry_space_group_name_H-M   'P 1'
_cell_length_a   9.70972600
_cell_length_b   9.70972567
_cell_length_c   23.02188700
_cell_angle_alpha   90.00000000
_cell_angle_beta   90.00000000
_cell_angle_gamma   120.00000112
_symmetry_Int_Tables_number   1
_chemical_formula_structural   Co
_chemical_formula_sum   Co24
_cell_volume   1879.68674634
_cell_formula_units_Z   24
loop_
 _symmetry_equiv_pos_site_id
 _symmetry_equiv_pos_as_xyz
  1  'x, y, z'
loop_
 _atom_site_type_symbol
 _atom_site_label
 _atom_site_symmetry_multiplicity
 _atom_site_fract_x
 _atom_site_fract_y
 _atom_site_fract_z
 _atom_site_occupancy
  Co  Co0  1  0.00252800  0.01421000  0.29553600  1.0
  Co  Co1  1  0.97553100  0.54705500  0.95401500  1.0
  Co  Co2  1  0.93742300  0.39904400  0.80518000  1.0
  Co  Co3  1  0.95193000  0.43913800  0.15059400  1.0
  Co  Co4  1  0.60095600  0.53837900  0.13851300  1.0
  Co  Co5  1  0.56086200  0.51279200  0.48392700  1.0
  Co  Co6  1  0.01168200  0.99747200  0.96220300  1.0
  Co  Co7  1  0.01421000  0.01168200  0.12887000  1.0
  Co  Co8  1  0.45294600  0.42847700  0.28734800  1.0
  Co  Co9  1  0.57152400  0.02447000  0.62068200  1.0
  Co  Co10  1  0.48720800  0.04807000  0.81726100  1.0
  Co  Co11  1  0.46162100  0.06257700  0.47184600  1.0
  Co  Co12  1  0.53837900  0.93742300  0.97184600  1.0
  Co  Co13  1  0.51279200  0.95193000  0.31726100  1.0
  Co  Co14  1  0.42847600  0.97553000  0.12068200  1.0
  Co  Co15  1  0.54705400  0.57152300  0.78734800  1.0
  Co  Co16  1  0.98579000  0.98831800  0.62887000  1.0
  Co  Co17  1  0.98831800  0.00252800  0.46220300  1.0
  Co  Co18  1  0.43913800  0.48720800  0.98392700  1.0
  Co  Co19  1  0.39904400  0.46162100  0.63851300  1.0
  Co  Co20  1  0.04807000  0.56086200  0.65059400  1.0
  Co  Co21  1  0.06257700  0.60095600  0.30518000  1.0
  Co  Co22  1  0.02446900  0.45294500  0.45401500  1.0
  Co  Co23  1  0.99747200  0.98579000  0.79553600  1.0
