# generated using pymatgen
data_Co
_symmetry_space_group_name_H-M   'P 1'
_cell_length_a   7.89774200
_cell_length_b   14.96579400
_cell_length_c   14.96579418
_cell_angle_alpha   119.99999960
_cell_angle_beta   90.00000000
_cell_angle_gamma   90.00000000
_symmetry_Int_Tables_number   1
_chemical_formula_structural   Co
_chemical_formula_sum   Co18
_cell_volume   1531.90949113
_cell_formula_units_Z   18
loop_
 _symmetry_equiv_pos_site_id
 _symmetry_equiv_pos_as_xyz
  1  'x, y, z'
loop_
 _atom_site_type_symbol
 _atom_site_label
 _atom_site_symmetry_multiplicity
 _atom_site_fract_x
 _atom_site_fract_y
 _atom_site_fract_z
 _atom_site_occupancy
  Co  Co0  1  0.18764600  0.90886800  0.77944600  1.0
  Co  Co1  1  0.24976100  0.88610900  0.46358700  1.0
  Co  Co2  1  0.73774600  0.75319800  0.55183000  1.0
  Co  Co3  1  0.73774600  0.79863200  0.24680200  1.0
  Co  Co4  1  0.24976100  0.53641300  0.42252200  1.0
  Co  Co5  1  0.18764600  0.87057800  0.09113200  1.0
  Co  Co6  1  0.24976100  0.57747800  0.11389100  1.0
  Co  Co7  1  0.68764600  0.77944600  0.87057800  1.0
  Co  Co8  1  0.73774600  0.44817000  0.20136800  1.0
  Co  Co9  1  0.23774600  0.55183000  0.79863200  1.0
  Co  Co10  1  0.18764600  0.22055400  0.12942200  1.0
  Co  Co11  1  0.74976100  0.42252200  0.88610900  1.0
  Co  Co12  1  0.68764600  0.12942200  0.90886800  1.0
  Co  Co13  1  0.74976100  0.46358700  0.57747800  1.0
  Co  Co14  1  0.23774600  0.20136800  0.75319800  1.0
  Co  Co15  1  0.23774600  0.24680200  0.44817000  1.0
  Co  Co16  1  0.74976100  0.11389100  0.53641300  1.0
  Co  Co17  1  0.68764600  0.09113200  0.22055400  1.0
