# generated using pymatgen
data_Co
_symmetry_space_group_name_H-M   'P 1'
_cell_length_a   5.05277700
_cell_length_b   10.08316400
_cell_length_c   13.66016100
_cell_angle_alpha   90.00000000
_cell_angle_beta   90.00000000
_cell_angle_gamma   90.00000000
_symmetry_Int_Tables_number   1
_chemical_formula_structural   Co
_chemical_formula_sum   Co8
_cell_volume   695.95759776
_cell_formula_units_Z   8
loop_
 _symmetry_equiv_pos_site_id
 _symmetry_equiv_pos_as_xyz
  1  'x, y, z'
loop_
 _atom_site_type_symbol
 _atom_site_label
 _atom_site_symmetry_multiplicity
 _atom_site_fract_x
 _atom_site_fract_y
 _atom_site_fract_z
 _atom_site_occupancy
  Co  Co0  1  0.93132700  0.03030200  0.49920900  1.0
  Co  Co1  1  0.55248500  0.21924700  0.24808800  1.0
  Co  Co2  1  0.55248500  0.28075300  0.74808800  1.0
  Co  Co3  1  0.93132700  0.46969800  0.99920900  1.0
  Co  Co4  1  0.06867300  0.53030200  0.49920900  1.0
  Co  Co5  1  0.44751500  0.71924700  0.24808800  1.0
  Co  Co6  1  0.44751500  0.78075300  0.74808800  1.0
  Co  Co7  1  0.06867300  0.96969800  0.99920900  1.0
