# generated using pymatgen
data_Co
_symmetry_space_group_name_H-M   'P 1'
_cell_length_a   7.61744100
_cell_length_b   8.63519300
_cell_length_c   15.00089526
_cell_angle_alpha   90.69110776
_cell_angle_beta   90.00000000
_cell_angle_gamma   90.00000000
_symmetry_Int_Tables_number   1
_chemical_formula_structural   Co
_chemical_formula_sum   Co12
_cell_volume   986.65820556
_cell_formula_units_Z   12
loop_
 _symmetry_equiv_pos_site_id
 _symmetry_equiv_pos_as_xyz
  1  'x, y, z'
loop_
 _atom_site_type_symbol
 _atom_site_label
 _atom_site_symmetry_multiplicity
 _atom_site_fract_x
 _atom_site_fract_y
 _atom_site_fract_z
 _atom_site_occupancy
  Co  Co0  1  0.67753500  0.05826000  0.41000900  1.0
  Co  Co1  1  0.81678100  0.08541400  0.76337300  1.0
  Co  Co2  1  0.67675600  0.09587400  0.07946700  1.0
  Co  Co3  1  0.17675600  0.40412600  0.42053300  1.0
  Co  Co4  1  0.31678100  0.41458600  0.73662700  1.0
  Co  Co5  1  0.17753500  0.44174000  0.08999100  1.0
  Co  Co6  1  0.82246500  0.55826000  0.91000900  1.0
  Co  Co7  1  0.68321900  0.58541400  0.26337300  1.0
  Co  Co8  1  0.82324400  0.59587400  0.57946700  1.0
  Co  Co9  1  0.32324400  0.90412600  0.92053300  1.0
  Co  Co10  1  0.18321900  0.91458600  0.23662700  1.0
  Co  Co11  1  0.32246500  0.94174000  0.58999100  1.0
