# generated using pymatgen
data_Co
_symmetry_space_group_name_H-M   'P 1'
_cell_length_a   4.96737099
_cell_length_b   4.96747479
_cell_length_c   8.48914807
_cell_angle_alpha   74.95668827
_cell_angle_beta   74.94922648
_cell_angle_gamma   61.33685393
_symmetry_Int_Tables_number   1
_chemical_formula_structural   Co
_chemical_formula_sum   Co2
_cell_volume   175.23031364
_cell_formula_units_Z   2
loop_
 _symmetry_equiv_pos_site_id
 _symmetry_equiv_pos_as_xyz
  1  'x, y, z'
loop_
 _atom_site_type_symbol
 _atom_site_label
 _atom_site_symmetry_multiplicity
 _atom_site_fract_x
 _atom_site_fract_y
 _atom_site_fract_z
 _atom_site_occupancy
  Co  Co0  1  0.30989650  0.19475950  0.24898350  1.0
  Co  Co1  1  0.69468350  0.80980450  0.74906150  1.0
