# generated using pymatgen
data_Co
_symmetry_space_group_name_H-M   'P 1'
_cell_length_a   4.98038280
_cell_length_b   7.29215766
_cell_length_c   9.59047500
_cell_angle_alpha   90.00069843
_cell_angle_beta   90.00228614
_cell_angle_gamma   89.97169577
_symmetry_Int_Tables_number   1
_chemical_formula_structural   Co
_chemical_formula_sum   Co4
_cell_volume   348.30430197
_cell_formula_units_Z   4
loop_
 _symmetry_equiv_pos_site_id
 _symmetry_equiv_pos_as_xyz
  1  'x, y, z'
loop_
 _atom_site_type_symbol
 _atom_site_label
 _atom_site_symmetry_multiplicity
 _atom_site_fract_x
 _atom_site_fract_y
 _atom_site_fract_z
 _atom_site_occupancy
  Co  Co0  1  0.79567200  0.41596400  0.07299300  1.0
  Co  Co1  1  0.20433100  0.58403900  0.57299100  1.0
  Co  Co2  1  0.29415300  0.08502400  0.02354500  1.0
  Co  Co3  1  0.70584300  0.91498200  0.52354500  1.0
