# generated using pymatgen
data_Co
_symmetry_space_group_name_H-M   'P 1'
_cell_length_a   5.06662100
_cell_length_b   8.06923600
_cell_length_c   18.79184800
_cell_angle_alpha   90.00000000
_cell_angle_beta   90.00000000
_cell_angle_gamma   90.00000000
_symmetry_Int_Tables_number   1
_chemical_formula_structural   Co
_chemical_formula_sum   Co8
_cell_volume   768.28141433
_cell_formula_units_Z   8
loop_
 _symmetry_equiv_pos_site_id
 _symmetry_equiv_pos_as_xyz
  1  'x, y, z'
loop_
 _atom_site_type_symbol
 _atom_site_label
 _atom_site_symmetry_multiplicity
 _atom_site_fract_x
 _atom_site_fract_y
 _atom_site_fract_z
 _atom_site_occupancy
  Co  Co0  1  0.25234000  0.50146400  0.06278000  1.0
  Co  Co1  1  0.25234000  0.00146400  0.43722000  1.0
  Co  Co2  1  0.24243400  0.32869100  0.33873600  1.0
  Co  Co3  1  0.24243400  0.82869100  0.16126400  1.0
  Co  Co4  1  0.75234000  0.99853600  0.56278000  1.0
  Co  Co5  1  0.75234000  0.49853600  0.93722000  1.0
  Co  Co6  1  0.74243400  0.17130900  0.83873600  1.0
  Co  Co7  1  0.74243400  0.67130900  0.66126400  1.0
