# generated using pymatgen
data_Co
_symmetry_space_group_name_H-M   'P 1'
_cell_length_a   4.28796175
_cell_length_b   4.82220062
_cell_length_c   14.69950615
_cell_angle_alpha   90.01265507
_cell_angle_beta   89.98028322
_cell_angle_gamma   89.94081916
_symmetry_Int_Tables_number   1
_chemical_formula_structural   Co
_chemical_formula_sum   Co4
_cell_volume   303.94755449
_cell_formula_units_Z   4
loop_
 _symmetry_equiv_pos_site_id
 _symmetry_equiv_pos_as_xyz
  1  'x, y, z'
loop_
 _atom_site_type_symbol
 _atom_site_label
 _atom_site_symmetry_multiplicity
 _atom_site_fract_x
 _atom_site_fract_y
 _atom_site_fract_z
 _atom_site_occupancy
  Co  Co0  1  0.54316200  0.29280300  0.43950800  1.0
  Co  Co1  1  0.54287000  0.79134000  0.56047200  1.0
  Co  Co2  1  0.95873200  0.29042200  0.93968100  1.0
  Co  Co3  1  0.95841300  0.79081300  0.06053600  1.0
