# generated using pymatgen
data_Co
_symmetry_space_group_name_H-M   'P 1'
_cell_length_a   5.75710300
_cell_length_b   7.64943000
_cell_length_c   13.90751200
_cell_angle_alpha   90.00000000
_cell_angle_beta   90.00000000
_cell_angle_gamma   90.00000000
_symmetry_Int_Tables_number   1
_chemical_formula_structural   Co
_chemical_formula_sum   Co8
_cell_volume   612.46675161
_cell_formula_units_Z   8
loop_
 _symmetry_equiv_pos_site_id
 _symmetry_equiv_pos_as_xyz
  1  'x, y, z'
loop_
 _atom_site_type_symbol
 _atom_site_label
 _atom_site_symmetry_multiplicity
 _atom_site_fract_x
 _atom_site_fract_y
 _atom_site_fract_z
 _atom_site_occupancy
  Co  Co0  1  0.40496300  0.18343600  0.53991200  1.0
  Co  Co1  1  0.90496300  0.18343600  0.96008800  1.0
  Co  Co2  1  0.40496300  0.31656400  0.03991200  1.0
  Co  Co3  1  0.90496300  0.31656400  0.46008800  1.0
  Co  Co4  1  0.09503700  0.68343600  0.53991200  1.0
  Co  Co5  1  0.59503700  0.68343600  0.96008800  1.0
  Co  Co6  1  0.09503700  0.81656400  0.03991200  1.0
  Co  Co7  1  0.59503700  0.81656400  0.46008800  1.0
