# generated using pymatgen
data_Co
_symmetry_space_group_name_H-M   'P 1'
_cell_length_a   5.03674389
_cell_length_b   5.03672772
_cell_length_c   15.94061453
_cell_angle_alpha   88.44943090
_cell_angle_beta   88.44977606
_cell_angle_gamma   69.83563321
_symmetry_Int_Tables_number   1
_chemical_formula_structural   Co
_chemical_formula_sum   Co4
_cell_volume   379.39987159
_cell_formula_units_Z   4
loop_
 _symmetry_equiv_pos_site_id
 _symmetry_equiv_pos_as_xyz
  1  'x, y, z'
loop_
 _atom_site_type_symbol
 _atom_site_label
 _atom_site_symmetry_multiplicity
 _atom_site_fract_x
 _atom_site_fract_y
 _atom_site_fract_z
 _atom_site_occupancy
  Co  Co0  1  0.60551600  0.08060000  0.58232800  1.0
  Co  Co1  1  0.08059500  0.60552200  0.08232700  1.0
  Co  Co2  1  0.91941200  0.39443300  0.91766800  1.0
  Co  Co3  1  0.39443400  0.91941400  0.41766900  1.0
