# generated using pymatgen
data_Co
_symmetry_space_group_name_H-M   'P 1'
_cell_length_a   5.70677500
_cell_length_b   9.91070808
_cell_length_c   10.70056000
_cell_angle_alpha   90.00000000
_cell_angle_beta   90.00000000
_cell_angle_gamma   91.69335747
_symmetry_Int_Tables_number   1
_chemical_formula_structural   Co
_chemical_formula_sum   Co8
_cell_volume   604.93991331
_cell_formula_units_Z   8
loop_
 _symmetry_equiv_pos_site_id
 _symmetry_equiv_pos_as_xyz
  1  'x, y, z'
loop_
 _atom_site_type_symbol
 _atom_site_label
 _atom_site_symmetry_multiplicity
 _atom_site_fract_x
 _atom_site_fract_y
 _atom_site_fract_z
 _atom_site_occupancy
  Co  Co0  1  0.11674500  0.73472300  0.90148700  1.0
  Co  Co1  1  0.11674500  0.23472300  0.59851300  1.0
  Co  Co2  1  0.34893100  0.99274800  0.37218600  1.0
  Co  Co3  1  0.34893100  0.49274800  0.12781400  1.0
  Co  Co4  1  0.65106900  0.50725200  0.87218600  1.0
  Co  Co5  1  0.65106900  0.00725200  0.62781400  1.0
  Co  Co6  1  0.88325500  0.76527700  0.40148700  1.0
  Co  Co7  1  0.88325500  0.26527700  0.09851300  1.0
