# generated using pymatgen
data_Co
_symmetry_space_group_name_H-M   'P 1'
_cell_length_a   9.90777600
_cell_length_b   10.06991679
_cell_length_c   16.43236571
_cell_angle_alpha   97.75450026
_cell_angle_beta   90.00000000
_cell_angle_gamma   119.46878077
_symmetry_Int_Tables_number   1
_chemical_formula_structural   Co
_chemical_formula_sum   Co16
_cell_volume   1410.11163216
_cell_formula_units_Z   16
loop_
 _symmetry_equiv_pos_site_id
 _symmetry_equiv_pos_as_xyz
  1  'x, y, z'
loop_
 _atom_site_type_symbol
 _atom_site_label
 _atom_site_symmetry_multiplicity
 _atom_site_fract_x
 _atom_site_fract_y
 _atom_site_fract_z
 _atom_site_occupancy
  Co  Co0  1  0.11531300  0.84856200  0.12847800  1.0
  Co  Co1  1  0.55421600  0.78557900  0.12781400  1.0
  Co  Co2  1  0.73324900  0.84856200  0.62847800  1.0
  Co  Co3  1  0.23136300  0.78557900  0.62781400  1.0
  Co  Co4  1  0.99539600  0.66999600  0.37834100  1.0
  Co  Co5  1  0.48966500  0.60943200  0.37879500  1.0
  Co  Co6  1  0.67460000  0.66999600  0.87834100  1.0
  Co  Co7  1  0.11976700  0.60943200  0.87879500  1.0
  Co  Co8  1  0.61776400  0.34777000  0.12780700  1.0
  Co  Co9  1  0.05427200  0.28712500  0.12969900  1.0
  Co  Co10  1  0.73000600  0.34777000  0.62780700  1.0
  Co  Co11  1  0.23285300  0.28712500  0.62969900  1.0
  Co  Co12  1  0.99060100  0.16471100  0.37925000  1.0
  Co  Co13  1  0.49517800  0.11394800  0.37896400  1.0
  Co  Co14  1  0.17411000  0.16471100  0.87925000  1.0
  Co  Co15  1  0.61877000  0.11394800  0.87896400  1.0
