# generated using pymatgen
data_Co
_symmetry_space_group_name_H-M   'P 1'
_cell_length_a   4.29277100
_cell_length_b   4.76642100
_cell_length_c   14.62690200
_cell_angle_alpha   90.00036833
_cell_angle_beta   89.99966197
_cell_angle_gamma   90.00008812
_symmetry_Int_Tables_number   1
_chemical_formula_structural   Co
_chemical_formula_sum   Co4
_cell_volume   299.28329205
_cell_formula_units_Z   4
loop_
 _symmetry_equiv_pos_site_id
 _symmetry_equiv_pos_as_xyz
  1  'x, y, z'
loop_
 _atom_site_type_symbol
 _atom_site_label
 _atom_site_symmetry_multiplicity
 _atom_site_fract_x
 _atom_site_fract_y
 _atom_site_fract_z
 _atom_site_occupancy
  Co  Co0  1  0.99999400  0.24999800  0.93718600  1.0
  Co  Co1  1  0.00000300  0.75000200  0.06281500  1.0
  Co  Co2  1  0.49999900  0.25000100  0.43718600  1.0
  Co  Co3  1  0.50000500  0.74999800  0.56281500  1.0
