# generated using pymatgen
data_Co
_symmetry_space_group_name_H-M   'P 1'
_cell_length_a   5.16886734
_cell_length_b   5.16920220
_cell_length_c   9.40927761
_cell_angle_alpha   89.97214537
_cell_angle_beta   89.94980804
_cell_angle_gamma   119.99677877
_symmetry_Int_Tables_number   1
_chemical_formula_structural   Co
_chemical_formula_sum   Co2
_cell_volume   217.73061655
_cell_formula_units_Z   2
loop_
 _symmetry_equiv_pos_site_id
 _symmetry_equiv_pos_as_xyz
  1  'x, y, z'
loop_
 _atom_site_type_symbol
 _atom_site_label
 _atom_site_symmetry_multiplicity
 _atom_site_fract_x
 _atom_site_fract_y
 _atom_site_fract_z
 _atom_site_occupancy
  Co  Co0  1  0.66665000  0.33306650  0.12548350  1.0
  Co  Co1  1  0.33366350  0.66698400  0.62552750  1.0
