# generated using pymatgen
data_Co
_symmetry_space_group_name_H-M   'P 1'
_cell_length_a   5.05600600
_cell_length_b   10.07740400
_cell_length_c   13.61631100
_cell_angle_alpha   90.00000000
_cell_angle_beta   90.00000000
_cell_angle_gamma   90.00000000
_symmetry_Int_Tables_number   1
_chemical_formula_structural   Co
_chemical_formula_sum   Co8
_cell_volume   693.77031373
_cell_formula_units_Z   8
loop_
 _symmetry_equiv_pos_site_id
 _symmetry_equiv_pos_as_xyz
  1  'x, y, z'
loop_
 _atom_site_type_symbol
 _atom_site_label
 _atom_site_symmetry_multiplicity
 _atom_site_fract_x
 _atom_site_fract_y
 _atom_site_fract_z
 _atom_site_occupancy
  Co  Co0  1  0.06050200  0.03617000  0.24833300  1.0
  Co  Co1  1  0.55549500  0.21687600  0.99873000  1.0
  Co  Co2  1  0.55549500  0.28312400  0.49873000  1.0
  Co  Co3  1  0.06050200  0.46383000  0.74833300  1.0
  Co  Co4  1  0.93949800  0.53617000  0.24833300  1.0
  Co  Co5  1  0.44450500  0.71687600  0.99873000  1.0
  Co  Co6  1  0.44450500  0.78312400  0.49873000  1.0
  Co  Co7  1  0.93949800  0.96383000  0.74833300  1.0
