# generated using pymatgen
data_Co
_symmetry_space_group_name_H-M   'P 1'
_cell_length_a   4.82148361
_cell_length_b   4.87724303
_cell_length_c   8.37669865
_cell_angle_alpha   90.42365587
_cell_angle_beta   106.57530177
_cell_angle_gamma   119.48342465
_symmetry_Int_Tables_number   1
_chemical_formula_structural   Co
_chemical_formula_sum   Co2
_cell_volume   161.74830859
_cell_formula_units_Z   2
loop_
 _symmetry_equiv_pos_site_id
 _symmetry_equiv_pos_as_xyz
  1  'x, y, z'
loop_
 _atom_site_type_symbol
 _atom_site_label
 _atom_site_symmetry_multiplicity
 _atom_site_fract_x
 _atom_site_fract_y
 _atom_site_fract_z
 _atom_site_occupancy
  Co  Co0  1  0.74180150  0.86456600  0.61943200  1.0
  Co  Co1  1  0.10718000  0.55991600  0.65401400  1.0
