# generated using pymatgen
data_Co
_symmetry_space_group_name_H-M   'P 1'
_cell_length_a   5.11309400
_cell_length_b   8.49248664
_cell_length_c   8.65815080
_cell_angle_alpha   72.15149925
_cell_angle_beta   90.00512328
_cell_angle_gamma   90.00245187
_symmetry_Int_Tables_number   1
_chemical_formula_structural   Co
_chemical_formula_sum   Co4
_cell_volume   357.86692443
_cell_formula_units_Z   4
loop_
 _symmetry_equiv_pos_site_id
 _symmetry_equiv_pos_as_xyz
  1  'x, y, z'
loop_
 _atom_site_type_symbol
 _atom_site_label
 _atom_site_symmetry_multiplicity
 _atom_site_fract_x
 _atom_site_fract_y
 _atom_site_fract_z
 _atom_site_occupancy
  Co  Co0  1  0.32043700  0.48441300  0.75222300  1.0
  Co  Co1  1  0.18037200  0.85099600  0.25836300  1.0
  Co  Co2  1  0.67950700  0.98438200  0.75222800  1.0
  Co  Co3  1  0.81965800  0.35098600  0.25833100  1.0
