# generated using pymatgen
data_Co
_symmetry_space_group_name_H-M   'P 1'
_cell_length_a   8.01253200
_cell_length_b   8.69454000
_cell_length_c   15.01950805
_cell_angle_alpha   90.63591022
_cell_angle_beta   90.00000000
_cell_angle_gamma   90.00000000
_symmetry_Int_Tables_number   1
_chemical_formula_structural   Co
_chemical_formula_sum   Co12
_cell_volume   1046.27378945
_cell_formula_units_Z   12
loop_
 _symmetry_equiv_pos_site_id
 _symmetry_equiv_pos_as_xyz
  1  'x, y, z'
loop_
 _atom_site_type_symbol
 _atom_site_label
 _atom_site_symmetry_multiplicity
 _atom_site_fract_x
 _atom_site_fract_y
 _atom_site_fract_z
 _atom_site_occupancy
  Co  Co0  1  0.83345500  0.08111200  0.76459800  1.0
  Co  Co1  1  0.65522300  0.09389800  0.07897200  1.0
  Co  Co2  1  0.65763900  0.05428000  0.40726700  1.0
  Co  Co3  1  0.15763900  0.44572000  0.09273300  1.0
  Co  Co4  1  0.84477700  0.59389800  0.57897200  1.0
  Co  Co5  1  0.34477700  0.90610200  0.92102800  1.0
  Co  Co6  1  0.34236100  0.94572000  0.59273300  1.0
  Co  Co7  1  0.84236100  0.55428000  0.90726700  1.0
  Co  Co8  1  0.66654500  0.58111200  0.26459800  1.0
  Co  Co9  1  0.33345500  0.41888800  0.73540200  1.0
  Co  Co10  1  0.16654500  0.91888800  0.23540200  1.0
  Co  Co11  1  0.15522300  0.40610200  0.42102800  1.0
