# generated using pymatgen
data_Co
_symmetry_space_group_name_H-M   'P 1'
_cell_length_a   4.80570100
_cell_length_b   5.21794656
_cell_length_c   7.57396849
_cell_angle_alpha   103.62555405
_cell_angle_beta   90.00013187
_cell_angle_gamma   117.41912430
_symmetry_Int_Tables_number   1
_chemical_formula_structural   Co
_chemical_formula_sum   Co2
_cell_volume   162.54288610
_cell_formula_units_Z   2
loop_
 _symmetry_equiv_pos_site_id
 _symmetry_equiv_pos_as_xyz
  1  'x, y, z'
loop_
 _atom_site_type_symbol
 _atom_site_label
 _atom_site_symmetry_multiplicity
 _atom_site_fract_x
 _atom_site_fract_y
 _atom_site_fract_z
 _atom_site_occupancy
  Co  Co0  1  0.69873150  0.32974900  0.80455600  1.0
  Co  Co1  1  0.36897450  0.67025100  0.19544550  1.0
