# generated using pymatgen
data_Co
_symmetry_space_group_name_H-M   'P 1'
_cell_length_a   4.84683200
_cell_length_b   7.58551300
_cell_length_c   17.44934411
_cell_angle_alpha   92.78652327
_cell_angle_beta   90.00000000
_cell_angle_gamma   90.00000000
_symmetry_Int_Tables_number   1
_chemical_formula_structural   Co
_chemical_formula_sum   Co8
_cell_volume   640.77892140
_cell_formula_units_Z   8
loop_
 _symmetry_equiv_pos_site_id
 _symmetry_equiv_pos_as_xyz
  1  'x, y, z'
loop_
 _atom_site_type_symbol
 _atom_site_label
 _atom_site_symmetry_multiplicity
 _atom_site_fract_x
 _atom_site_fract_y
 _atom_site_fract_z
 _atom_site_occupancy
  Co  Co0  1  0.27510300  0.97351600  0.59731700  1.0
  Co  Co1  1  0.22489700  0.97351600  0.09731700  1.0
  Co  Co2  1  0.62494700  0.49259700  0.82353600  1.0
  Co  Co3  1  0.87505300  0.49259700  0.32353600  1.0
  Co  Co4  1  0.12494700  0.50740300  0.67646400  1.0
  Co  Co5  1  0.37505300  0.50740300  0.17646400  1.0
  Co  Co6  1  0.77510300  0.02648400  0.90268300  1.0
  Co  Co7  1  0.72489700  0.02648400  0.40268300  1.0
