# generated using pymatgen
data_Co
_symmetry_space_group_name_H-M   'P 1'
_cell_length_a   5.01627800
_cell_length_b   6.13213500
_cell_length_c   11.04183000
_cell_angle_alpha   90.00000000
_cell_angle_beta   90.00000000
_cell_angle_gamma   90.00000000
_symmetry_Int_Tables_number   1
_chemical_formula_structural   Co
_chemical_formula_sum   Co4
_cell_volume   339.65214429
_cell_formula_units_Z   4
loop_
 _symmetry_equiv_pos_site_id
 _symmetry_equiv_pos_as_xyz
  1  'x, y, z'
loop_
 _atom_site_type_symbol
 _atom_site_label
 _atom_site_symmetry_multiplicity
 _atom_site_fract_x
 _atom_site_fract_y
 _atom_site_fract_z
 _atom_site_occupancy
  Co  Co0  1  0.99289700  0.52907100  0.83350300  1.0
  Co  Co1  1  0.49289700  0.47092900  0.16649700  1.0
  Co  Co2  1  0.49289700  0.02907100  0.66649700  1.0
  Co  Co3  1  0.99289700  0.97092900  0.33350300  1.0
