# generated using pymatgen
data_Co
_symmetry_space_group_name_H-M   'P 1'
_cell_length_a   9.89762200
_cell_length_b   9.89762192
_cell_length_c   23.91032300
_cell_angle_alpha   90.00000000
_cell_angle_beta   90.00000000
_cell_angle_gamma   120.00000026
_symmetry_Int_Tables_number   1
_chemical_formula_structural   Co
_chemical_formula_sum   Co24
_cell_volume   2028.51300903
_cell_formula_units_Z   24
loop_
 _symmetry_equiv_pos_site_id
 _symmetry_equiv_pos_as_xyz
  1  'x, y, z'
loop_
 _atom_site_type_symbol
 _atom_site_label
 _atom_site_symmetry_multiplicity
 _atom_site_fract_x
 _atom_site_fract_y
 _atom_site_fract_z
 _atom_site_occupancy
  Co  Co0  1  0.89875900  0.71872600  0.73010800  1.0
  Co  Co1  1  0.91434100  0.67920400  0.08017600  1.0
  Co  Co2  1  0.87529600  0.62992700  0.40653300  1.0
  Co  Co3  1  0.68941000  0.35708700  0.24334700  1.0
  Co  Co4  1  0.66767700  0.31058900  0.91001400  1.0
  Co  Co5  1  0.64291200  0.33232200  0.57668100  1.0
  Co  Co6  1  0.81996700  0.10124100  0.39677400  1.0
  Co  Co7  1  0.75463100  0.12470400  0.07319900  1.0
  Co  Co8  1  0.76486300  0.08565800  0.74684300  1.0
  Co  Co9  1  0.37007300  0.24536900  0.73986600  1.0
  Co  Co10  1  0.32079500  0.23513600  0.41350900  1.0
  Co  Co11  1  0.71872600  0.81996700  0.56344100  1.0
  Co  Co12  1  0.28127400  0.18003300  0.06344100  1.0
  Co  Co13  1  0.67920500  0.76486400  0.91350900  1.0
  Co  Co14  1  0.62992700  0.75463100  0.23986600  1.0
  Co  Co15  1  0.23513700  0.91434200  0.24684300  1.0
  Co  Co16  1  0.24536900  0.87529600  0.57319900  1.0
  Co  Co17  1  0.18003300  0.89875900  0.89677400  1.0
  Co  Co18  1  0.35708800  0.66767800  0.07668100  1.0
  Co  Co19  1  0.33232300  0.68941100  0.41001400  1.0
  Co  Co20  1  0.31059000  0.64291300  0.74334700  1.0
  Co  Co21  1  0.12470400  0.37007300  0.90653300  1.0
  Co  Co22  1  0.08565900  0.32079600  0.58017600  1.0
  Co  Co23  1  0.10124100  0.28127400  0.23010800  1.0
