# generated using pymatgen
data_Co
_symmetry_space_group_name_H-M   'P 1'
_cell_length_a   7.46812600
_cell_length_b   7.46812614
_cell_length_c   9.51014200
_cell_angle_alpha   90.00000000
_cell_angle_beta   90.00000000
_cell_angle_gamma   119.99999937
_symmetry_Int_Tables_number   1
_chemical_formula_structural   Co
_chemical_formula_sum   Co6
_cell_volume   459.34703486
_cell_formula_units_Z   6
loop_
 _symmetry_equiv_pos_site_id
 _symmetry_equiv_pos_as_xyz
  1  'x, y, z'
loop_
 _atom_site_type_symbol
 _atom_site_label
 _atom_site_symmetry_multiplicity
 _atom_site_fract_x
 _atom_site_fract_y
 _atom_site_fract_z
 _atom_site_occupancy
  Co  Co0  1  0.40834000  0.45834400  0.02143500  1.0
  Co  Co1  1  0.05000400  0.59166100  0.02143500  1.0
  Co  Co2  1  0.59166000  0.05000300  0.52143500  1.0
  Co  Co3  1  0.94999600  0.54165600  0.52143500  1.0
  Co  Co4  1  0.54165700  0.94999700  0.02143500  1.0
  Co  Co5  1  0.45834300  0.40833900  0.52143500  1.0
