# generated using pymatgen
data_Co
_symmetry_space_group_name_H-M   'P 1'
_cell_length_a   5.05391200
_cell_length_b   6.83658300
_cell_length_c   10.22178200
_cell_angle_alpha   89.99946276
_cell_angle_beta   89.99985911
_cell_angle_gamma   90.00205707
_symmetry_Int_Tables_number   1
_chemical_formula_structural   Co
_chemical_formula_sum   Co4
_cell_volume   353.17778669
_cell_formula_units_Z   4
loop_
 _symmetry_equiv_pos_site_id
 _symmetry_equiv_pos_as_xyz
  1  'x, y, z'
loop_
 _atom_site_type_symbol
 _atom_site_label
 _atom_site_symmetry_multiplicity
 _atom_site_fract_x
 _atom_site_fract_y
 _atom_site_fract_z
 _atom_site_occupancy
  Co  Co0  1  0.75395000  0.50463500  0.33956900  1.0
  Co  Co1  1  0.25394800  0.00463500  0.16043100  1.0
  Co  Co2  1  0.75392800  0.99536900  0.83952900  1.0
  Co  Co3  1  0.25393500  0.49536900  0.66046900  1.0
