# generated using pymatgen
data_Co
_symmetry_space_group_name_H-M   'P 1'
_cell_length_a   5.90640716
_cell_length_b   6.45883665
_cell_length_c   9.46006053
_cell_angle_alpha   74.22695186
_cell_angle_beta   84.48136551
_cell_angle_gamma   80.27297571
_symmetry_Int_Tables_number   1
_chemical_formula_structural   Co
_chemical_formula_sum   Co4
_cell_volume   341.82506690
_cell_formula_units_Z   4
loop_
 _symmetry_equiv_pos_site_id
 _symmetry_equiv_pos_as_xyz
  1  'x, y, z'
loop_
 _atom_site_type_symbol
 _atom_site_label
 _atom_site_symmetry_multiplicity
 _atom_site_fract_x
 _atom_site_fract_y
 _atom_site_fract_z
 _atom_site_occupancy
  Co  Co0  1  0.02485500  0.07819900  0.71271500  1.0
  Co  Co1  1  0.80208200  0.62777100  0.07184400  1.0
  Co  Co2  1  0.97538500  0.92217200  0.28700300  1.0
  Co  Co3  1  0.19737700  0.37177800  0.92822300  1.0
