# generated using pymatgen
data_Co
_symmetry_space_group_name_H-M   'P 1'
_cell_length_a   5.32417900
_cell_length_b   8.04472536
_cell_length_c   8.40958757
_cell_angle_alpha   105.02757649
_cell_angle_beta   89.99620355
_cell_angle_gamma   89.99813946
_symmetry_Int_Tables_number   1
_chemical_formula_structural   Co
_chemical_formula_sum   Co4
_cell_volume   347.87745317
_cell_formula_units_Z   4
loop_
 _symmetry_equiv_pos_site_id
 _symmetry_equiv_pos_as_xyz
  1  'x, y, z'
loop_
 _atom_site_type_symbol
 _atom_site_label
 _atom_site_symmetry_multiplicity
 _atom_site_fract_x
 _atom_site_fract_y
 _atom_site_fract_z
 _atom_site_occupancy
  Co  Co0  1  0.15258800  0.02751000  0.42361000  1.0
  Co  Co1  1  0.33318500  0.50945300  0.72822200  1.0
  Co  Co2  1  0.84717200  0.02769900  0.92376500  1.0
  Co  Co3  1  0.66684500  0.50933000  0.22808100  1.0
