# generated using pymatgen
data_Co
_symmetry_space_group_name_H-M   'P 1'
_cell_length_a   5.28867188
_cell_length_b   5.29367953
_cell_length_c   12.62403556
_cell_angle_alpha   89.99016491
_cell_angle_beta   89.99943472
_cell_angle_gamma   60.03795645
_symmetry_Int_Tables_number   1
_chemical_formula_structural   Co
_chemical_formula_sum   Co3
_cell_volume   306.19569625
_cell_formula_units_Z   3
loop_
 _symmetry_equiv_pos_site_id
 _symmetry_equiv_pos_as_xyz
  1  'x, y, z'
loop_
 _atom_site_type_symbol
 _atom_site_label
 _atom_site_symmetry_multiplicity
 _atom_site_fract_x
 _atom_site_fract_y
 _atom_site_fract_z
 _atom_site_occupancy
  Co  Co0  1  0.99996700  0.49997000  0.66680300  1.0
  Co  Co1  1  0.49995900  0.00013650  0.33332167  1.0
  Co  Co2  1  0.50000650  0.49996100  0.99988000  1.0
