# generated using pymatgen
data_Co
_symmetry_space_group_name_H-M   'P 1'
_cell_length_a   5.16400786
_cell_length_b   5.37115679
_cell_length_c   8.65552756
_cell_angle_alpha   90.00256140
_cell_angle_beta   90.00573171
_cell_angle_gamma   61.26816078
_symmetry_Int_Tables_number   1
_chemical_formula_structural   Co
_chemical_formula_sum   Co2
_cell_volume   210.51741034
_cell_formula_units_Z   2
loop_
 _symmetry_equiv_pos_site_id
 _symmetry_equiv_pos_as_xyz
  1  'x, y, z'
loop_
 _atom_site_type_symbol
 _atom_site_label
 _atom_site_symmetry_multiplicity
 _atom_site_fract_x
 _atom_site_fract_y
 _atom_site_fract_z
 _atom_site_occupancy
  Co  Co0  1  0.62967200  0.66718000  0.31772600  1.0
  Co  Co1  1  0.29685400  0.33281500  0.81772300  1.0
