# generated using pymatgen
data_Co
_symmetry_space_group_name_H-M   'P 1'
_cell_length_a   5.09875409
_cell_length_b   6.28789512
_cell_length_c   10.95503800
_cell_angle_alpha   90.00174043
_cell_angle_beta   89.99992429
_cell_angle_gamma   90.02153453
_symmetry_Int_Tables_number   1
_chemical_formula_structural   Co
_chemical_formula_sum   Co4
_cell_volume   351.22321450
_cell_formula_units_Z   4
loop_
 _symmetry_equiv_pos_site_id
 _symmetry_equiv_pos_as_xyz
  1  'x, y, z'
loop_
 _atom_site_type_symbol
 _atom_site_label
 _atom_site_symmetry_multiplicity
 _atom_site_fract_x
 _atom_site_fract_y
 _atom_site_fract_z
 _atom_site_occupancy
  Co  Co0  1  0.25381100  0.29699100  0.41468300  1.0
  Co  Co1  1  0.75379400  0.79698500  0.08531800  1.0
  Co  Co2  1  0.25366100  0.20299000  0.91471500  1.0
  Co  Co3  1  0.75366700  0.70297800  0.58528400  1.0
