# generated using pymatgen
data_Co
_symmetry_space_group_name_H-M   'P 1'
_cell_length_a   9.86375600
_cell_length_b   10.04051099
_cell_length_c   17.16301570
_cell_angle_alpha   74.27060449
_cell_angle_beta   73.30033151
_cell_angle_gamma   60.58065293
_symmetry_Int_Tables_number   1
_chemical_formula_structural   Co
_chemical_formula_sum   Co16
_cell_volume   1400.83475586
_cell_formula_units_Z   16
loop_
 _symmetry_equiv_pos_site_id
 _symmetry_equiv_pos_as_xyz
  1  'x, y, z'
loop_
 _atom_site_type_symbol
 _atom_site_label
 _atom_site_symmetry_multiplicity
 _atom_site_fract_x
 _atom_site_fract_y
 _atom_site_fract_z
 _atom_site_occupancy
  Co  Co0  1  0.62482500  0.99903500  0.81548100  1.0
  Co  Co1  1  0.06081700  0.99436200  0.31472200  1.0
  Co  Co2  1  0.81472900  0.87827400  0.56475400  1.0
  Co  Co3  1  0.37711600  0.81904600  0.56406200  1.0
  Co  Co4  1  0.74139500  0.88006700  0.06507700  1.0
  Co  Co5  1  0.24094400  0.81890100  0.06372100  1.0
  Co  Co6  1  0.12293400  0.56207200  0.81271000  1.0
  Co  Co7  1  0.63009900  0.49436200  0.81472200  1.0
  Co  Co8  1  0.00248400  0.55493200  0.31371700  1.0
  Co  Co9  1  0.56065900  0.49903500  0.31548100  1.0
  Co  Co10  1  0.31346100  0.38006700  0.56507700  1.0
  Co  Co11  1  0.87643400  0.31890100  0.56372100  1.0
  Co  Co12  1  0.74224300  0.37827400  0.06475400  1.0
  Co  Co13  1  0.23977600  0.31904600  0.06406200  1.0
  Co  Co14  1  0.12886700  0.05493200  0.81371700  1.0
  Co  Co15  1  0.50228400  0.06207200  0.31271000  1.0
