# generated using pymatgen
data_Co
_symmetry_space_group_name_H-M   'P 1'
_cell_length_a   5.17452494
_cell_length_b   7.89942716
_cell_length_c   8.75783359
_cell_angle_alpha   87.63728234
_cell_angle_beta   87.22300222
_cell_angle_gamma   77.88463756
_symmetry_Int_Tables_number   1
_chemical_formula_structural   Co
_chemical_formula_sum   Co4
_cell_volume   349.42208339
_cell_formula_units_Z   4
loop_
 _symmetry_equiv_pos_site_id
 _symmetry_equiv_pos_as_xyz
  1  'x, y, z'
loop_
 _atom_site_type_symbol
 _atom_site_label
 _atom_site_symmetry_multiplicity
 _atom_site_fract_x
 _atom_site_fract_y
 _atom_site_fract_z
 _atom_site_occupancy
  Co  Co0  1  0.69008800  0.32030300  0.55721900  1.0
  Co  Co1  1  0.30992500  0.67968900  0.44277600  1.0
  Co  Co2  1  0.76399300  0.80848300  0.90905000  1.0
  Co  Co3  1  0.23597400  0.19153200  0.09093800  1.0
