# generated using pymatgen
data_Co
_symmetry_space_group_name_H-M   'P 1'
_cell_length_a   4.78507600
_cell_length_b   6.99269061
_cell_length_c   9.62934500
_cell_angle_alpha   90.00000000
_cell_angle_beta   90.00000000
_cell_angle_gamma   92.78727382
_symmetry_Int_Tables_number   1
_chemical_formula_structural   Co
_chemical_formula_sum   Co4
_cell_volume   321.82205936
_cell_formula_units_Z   4
loop_
 _symmetry_equiv_pos_site_id
 _symmetry_equiv_pos_as_xyz
  1  'x, y, z'
loop_
 _atom_site_type_symbol
 _atom_site_label
 _atom_site_symmetry_multiplicity
 _atom_site_fract_x
 _atom_site_fract_y
 _atom_site_fract_z
 _atom_site_occupancy
  Co  Co0  1  0.24066000  0.05307200  0.98143500  1.0
  Co  Co1  1  0.71816300  0.42881900  0.92826000  1.0
  Co  Co2  1  0.28183700  0.57118100  0.42826000  1.0
  Co  Co3  1  0.75934000  0.94692800  0.48143500  1.0
