# generated using pymatgen
data_Co
_symmetry_space_group_name_H-M   'P 1'
_cell_length_a   5.13927123
_cell_length_b   6.07681800
_cell_length_c   9.55536345
_cell_angle_alpha   90.00010545
_cell_angle_beta   96.10671285
_cell_angle_gamma   90.00026583
_symmetry_Int_Tables_number   1
_chemical_formula_structural   Co
_chemical_formula_sum   Co4
_cell_volume   296.72459818
_cell_formula_units_Z   4
loop_
 _symmetry_equiv_pos_site_id
 _symmetry_equiv_pos_as_xyz
  1  'x, y, z'
loop_
 _atom_site_type_symbol
 _atom_site_label
 _atom_site_symmetry_multiplicity
 _atom_site_fract_x
 _atom_site_fract_y
 _atom_site_fract_z
 _atom_site_occupancy
  Co  Co0  1  0.29605400  0.11187300  0.84173800  1.0
  Co  Co1  1  0.79605600  0.38812800  0.34173800  1.0
  Co  Co2  1  0.20400100  0.61189500  0.65829800  1.0
  Co  Co3  1  0.70399400  0.88811000  0.15830000  1.0
