# generated using pymatgen
data_Cr
_symmetry_space_group_name_H-M   'P 1'
_cell_length_a   7.29501227
_cell_length_b   7.29501227
_cell_length_c   7.90471092
_cell_angle_alpha   105.08287376
_cell_angle_beta   106.47129777
_cell_angle_gamma   114.25533695
_symmetry_Int_Tables_number   1
_chemical_formula_structural   Cr
_chemical_formula_sum   Cr5
_cell_volume   331.90499349
_cell_formula_units_Z   5
loop_
 _symmetry_equiv_pos_site_id
 _symmetry_equiv_pos_as_xyz
  1  'x, y, z'
loop_
 _atom_site_type_symbol
 _atom_site_label
 _atom_site_symmetry_multiplicity
 _atom_site_fract_x
 _atom_site_fract_y
 _atom_site_fract_z
 _atom_site_occupancy
  Cr  Cr0  1  0.77243300  0.27243300  0.50000000  1.0
  Cr  Cr1  1  0.22756700  0.72756700  0.50000000  1.0
  Cr  Cr2  1  0.74861600  0.26838400  0.01700000  1.0
  Cr  Cr3  1  0.25138400  0.73161600  0.98300000  1.0
  Cr  Cr4  1  0.00000000  0.00000000  0.00000000  1.0
