# generated using pymatgen
data_Ti
_symmetry_space_group_name_H-M   'P 1'
_cell_length_a   5.59752700
_cell_length_b   7.81718000
_cell_length_c   13.21908340
_cell_angle_alpha   98.53196729
_cell_angle_beta   90.00000000
_cell_angle_gamma   90.00000000
_symmetry_Int_Tables_number   1
_chemical_formula_structural   Ti
_chemical_formula_sum   Ti8
_cell_volume   572.02449607
_cell_formula_units_Z   8
loop_
 _symmetry_equiv_pos_site_id
 _symmetry_equiv_pos_as_xyz
  1  'x, y, z'
loop_
 _atom_site_type_symbol
 _atom_site_label
 _atom_site_symmetry_multiplicity
 _atom_site_fract_x
 _atom_site_fract_y
 _atom_site_fract_z
 _atom_site_occupancy
  Ti  Ti0  1  0.19924900  0.41730300  0.67454300  1.0
  Ti  Ti1  1  0.23206600  0.03187000  0.11924600  1.0
  Ti  Ti2  1  0.73353200  0.47274700  0.87903900  1.0
  Ti  Ti3  1  0.20460700  0.92428000  0.67819600  1.0
  Ti  Ti4  1  0.73206600  0.96813000  0.88075400  1.0
  Ti  Ti5  1  0.23353200  0.52725300  0.12096100  1.0
  Ti  Ti6  1  0.69924900  0.58269700  0.32545700  1.0
  Ti  Ti7  1  0.70460700  0.07572000  0.32180400  1.0
