# generated using pymatgen
data_Ti
_symmetry_space_group_name_H-M   'P 1'
_cell_length_a   3.90419600
_cell_length_b   5.67660600
_cell_length_c   13.07035309
_cell_angle_alpha   90.00000000
_cell_angle_beta   98.58944073
_cell_angle_gamma   90.00000000
_symmetry_Int_Tables_number   1
_chemical_formula_structural   Ti
_chemical_formula_sum   Ti4
_cell_volume   286.42378552
_cell_formula_units_Z   4
loop_
 _symmetry_equiv_pos_site_id
 _symmetry_equiv_pos_as_xyz
  1  'x, y, z'
loop_
 _atom_site_type_symbol
 _atom_site_label
 _atom_site_symmetry_multiplicity
 _atom_site_fract_x
 _atom_site_fract_y
 _atom_site_fract_z
 _atom_site_occupancy
  Ti  Ti0  1  0.83731300  0.19796500  0.67462600  1.0
  Ti  Ti1  1  0.16268700  0.69796500  0.32537400  1.0
  Ti  Ti2  1  0.93755500  0.73828800  0.87511000  1.0
  Ti  Ti3  1  0.06244500  0.23828800  0.12489000  1.0
