# generated using pymatgen
data_Fe
_symmetry_space_group_name_H-M   'P 1'
_cell_length_a   4.98875798
_cell_length_b   4.99611985
_cell_length_c   5.45618250
_cell_angle_alpha   88.04605554
_cell_angle_beta   86.08343405
_cell_angle_gamma   60.04958582
_symmetry_Int_Tables_number   1
_chemical_formula_structural   Fe
_chemical_formula_sum   Fe2
_cell_volume   117.55636163
_cell_formula_units_Z   2
loop_
 _symmetry_equiv_pos_site_id
 _symmetry_equiv_pos_as_xyz
  1  'x, y, z'
loop_
 _atom_site_type_symbol
 _atom_site_label
 _atom_site_symmetry_multiplicity
 _atom_site_fract_x
 _atom_site_fract_y
 _atom_site_fract_z
 _atom_site_occupancy
  Fe  Fe0  1  0.00006700  0.99987200  0.49994200  1.0
  Fe  Fe1  1  0.99996500  0.99990500  0.00010650  1.0
