# generated using pymatgen
data_Fe
_symmetry_space_group_name_H-M   'P 1'
_cell_length_a   4.99514630
_cell_length_b   4.99520120
_cell_length_c   5.46300483
_cell_angle_alpha   89.76789890
_cell_angle_beta   89.77206545
_cell_angle_gamma   119.96184438
_symmetry_Int_Tables_number   1
_chemical_formula_structural   Fe
_chemical_formula_sum   Fe2
_cell_volume   118.09085866
_cell_formula_units_Z   2
loop_
 _symmetry_equiv_pos_site_id
 _symmetry_equiv_pos_as_xyz
  1  'x, y, z'
loop_
 _atom_site_type_symbol
 _atom_site_label
 _atom_site_symmetry_multiplicity
 _atom_site_fract_x
 _atom_site_fract_y
 _atom_site_fract_z
 _atom_site_occupancy
  Fe  Fe0  1  0.99980700  0.99988600  0.50056500  1.0
  Fe  Fe1  1  0.00013200  0.00017800  0.99941000  1.0
