# generated using pymatgen
data_Fe12Pb
_symmetry_space_group_name_H-M   'P 1'
_cell_length_a   5.96577687
_cell_length_b   5.96577637
_cell_length_c   23.22228400
_cell_angle_alpha   90.00000000
_cell_angle_beta   90.00000000
_cell_angle_gamma   119.99999580
_symmetry_Int_Tables_number   1
_chemical_formula_structural   Fe12Pb
_chemical_formula_sum   'Fe24 Pb2'
_cell_volume   715.76351620
_cell_formula_units_Z   2
loop_
 _symmetry_equiv_pos_site_id
 _symmetry_equiv_pos_as_xyz
  1  'x, y, z'
loop_
 _atom_site_type_symbol
 _atom_site_label
 _atom_site_symmetry_multiplicity
 _atom_site_fract_x
 _atom_site_fract_y
 _atom_site_fract_z
 _atom_site_occupancy
  Fe  Fe0  1  0.66432500  0.83216200  0.60854700  1.0
  Fe  Fe1  1  0.33333333  0.66666667  0.30909500  1.0
  Fe  Fe2  1  0.33567500  0.16783800  0.39145300  1.0
  Fe  Fe3  1  0.16783700  0.33567400  0.89145300  1.0
  Fe  Fe4  1  0.16783700  0.83216200  0.60854700  1.0
  Fe  Fe5  1  0.33333333  0.66666667  0.02686500  1.0
  Fe  Fe6  1  0.83216300  0.66432600  0.39145300  1.0
  Fe  Fe7  1  0.66666667  0.33333333  0.52686500  1.0
  Fe  Fe8  1  0.83216300  0.16783800  0.39145300  1.0
  Fe  Fe9  1  0.66432500  0.83216200  0.89145300  1.0
  Fe  Fe10  1  0.66666667  0.33333333  0.69090500  1.0
  Fe  Fe11  1  0.33333333  0.66666667  0.19090500  1.0
  Fe  Fe12  1  0.83216300  0.16783800  0.10854700  1.0
  Fe  Fe13  1  0.00000000  0.00000000  0.50000000  1.0
  Fe  Fe14  1  0.33333333  0.66666667  0.47313500  1.0
  Fe  Fe15  1  0.66666667  0.33333333  0.97313500  1.0
  Fe  Fe16  1  0.16783700  0.33567400  0.60854700  1.0
  Fe  Fe17  1  0.16783700  0.83216200  0.89145300  1.0
  Fe  Fe18  1  0.33567500  0.16783800  0.10854700  1.0
  Fe  Fe19  1  0.00000000  0.00000000  0.25000000  1.0
  Fe  Fe20  1  0.83216300  0.66432600  0.10854700  1.0
  Fe  Fe21  1  0.66666667  0.33333333  0.80909500  1.0
  Fe  Fe22  1  0.00000000  0.00000000  0.00000000  1.0
  Fe  Fe23  1  0.00000000  0.00000000  0.75000000  1.0
  Pb  Pb24  1  0.33333333  0.66666667  0.75000000  1.0
  Pb  Pb25  1  0.66666667  0.33333333  0.25000000  1.0
