# generated using pymatgen
data_Cr
_symmetry_space_group_name_H-M   'P 1'
_cell_length_a   5.11398900
_cell_length_b   5.92920600
_cell_length_c   10.26801700
_cell_angle_alpha   90.00000000
_cell_angle_beta   90.00000000
_cell_angle_gamma   90.00000000
_symmetry_Int_Tables_number   1
_chemical_formula_structural   Cr
_chemical_formula_sum   Cr8
_cell_volume   311.34572576
_cell_formula_units_Z   8
loop_
 _symmetry_equiv_pos_site_id
 _symmetry_equiv_pos_as_xyz
  1  'x, y, z'
loop_
 _atom_site_type_symbol
 _atom_site_label
 _atom_site_symmetry_multiplicity
 _atom_site_fract_x
 _atom_site_fract_y
 _atom_site_fract_z
 _atom_site_occupancy
  Cr  Cr0  1  0.00961600  0.50000000  0.23719100  1.0
  Cr  Cr1  1  0.00961600  0.50000000  0.76280900  1.0
  Cr  Cr2  1  0.99038400  0.00000000  0.26280900  1.0
  Cr  Cr3  1  0.99038400  0.00000000  0.73719100  1.0
  Cr  Cr4  1  0.50000000  0.25000000  0.25000000  1.0
  Cr  Cr5  1  0.50000000  0.75000000  0.75000000  1.0
  Cr  Cr6  1  0.50000000  0.75000000  0.25000000  1.0
  Cr  Cr7  1  0.50000000  0.25000000  0.75000000  1.0
