# generated using pymatgen
data_Cr
_symmetry_space_group_name_H-M   'P 1'
_cell_length_a   5.97285617
_cell_length_b   5.97285617
_cell_length_c   14.88213181
_cell_angle_alpha   86.70628409
_cell_angle_beta   86.70628409
_cell_angle_gamma   60.83252523
_symmetry_Int_Tables_number   1
_chemical_formula_structural   Cr
_chemical_formula_sum   Cr12
_cell_volume   462.56889073
_cell_formula_units_Z   12
loop_
 _symmetry_equiv_pos_site_id
 _symmetry_equiv_pos_as_xyz
  1  'x, y, z'
loop_
 _atom_site_type_symbol
 _atom_site_label
 _atom_site_symmetry_multiplicity
 _atom_site_fract_x
 _atom_site_fract_y
 _atom_site_fract_z
 _atom_site_occupancy
  Cr  Cr0  1  0.33489900  0.83564700  0.83457400  1.0
  Cr  Cr1  1  0.00030300  0.00030300  0.62574500  1.0
  Cr  Cr2  1  0.99910200  0.99910200  0.99781600  1.0
  Cr  Cr3  1  0.83564700  0.33489900  0.83457400  1.0
  Cr  Cr4  1  0.00040800  0.49991700  0.50041900  1.0
  Cr  Cr5  1  0.66344000  0.66344000  0.29335300  1.0
  Cr  Cr6  1  0.49991700  0.00040800  0.50041900  1.0
  Cr  Cr7  1  0.66295000  0.16468500  0.16506400  1.0
  Cr  Cr8  1  0.33504700  0.33504700  0.70996400  1.0
  Cr  Cr9  1  0.16468500  0.66295000  0.16506400  1.0
  Cr  Cr10  1  0.00050700  0.00050700  0.37416100  1.0
  Cr  Cr11  1  0.66333900  0.66333900  0.03897800  1.0
