# generated using pymatgen
data_Cr
_symmetry_space_group_name_H-M   'P 1'
_cell_length_a   5.99526908
_cell_length_b   5.99526398
_cell_length_c   5.99526536
_cell_angle_alpha   90.01183423
_cell_angle_beta   119.99332256
_cell_angle_gamma   119.99302038
_symmetry_Int_Tables_number   1
_chemical_formula_structural   Cr
_chemical_formula_sum   Cr4
_cell_volume   152.38955150
_cell_formula_units_Z   4
loop_
 _symmetry_equiv_pos_site_id
 _symmetry_equiv_pos_as_xyz
  1  'x, y, z'
loop_
 _atom_site_type_symbol
 _atom_site_label
 _atom_site_symmetry_multiplicity
 _atom_site_fract_x
 _atom_site_fract_y
 _atom_site_fract_z
 _atom_site_occupancy
  Cr  Cr0  1  0.49999900  0.00000000  0.49999800  1.0
  Cr  Cr1  1  0.99999900  0.49999700  0.49999800  1.0
  Cr  Cr2  1  0.00000100  0.50000200  0.00000300  1.0
  Cr  Cr3  1  0.50000100  0.50000300  0.50000100  1.0
