# generated using pymatgen
data_Cr
_symmetry_space_group_name_H-M   'P 1'
_cell_length_a   6.00507000
_cell_length_b   6.00506899
_cell_length_c   14.82334400
_cell_angle_alpha   90.00000000
_cell_angle_beta   90.00000000
_cell_angle_gamma   120.00000559
_symmetry_Int_Tables_number   1
_chemical_formula_structural   Cr
_chemical_formula_sum   Cr12
_cell_volume   462.92738240
_cell_formula_units_Z   12
loop_
 _symmetry_equiv_pos_site_id
 _symmetry_equiv_pos_as_xyz
  1  'x, y, z'
loop_
 _atom_site_type_symbol
 _atom_site_label
 _atom_site_symmetry_multiplicity
 _atom_site_fract_x
 _atom_site_fract_y
 _atom_site_fract_z
 _atom_site_occupancy
  Cr  Cr0  1  0.66974100  0.83487000  0.83356100  1.0
  Cr  Cr1  1  0.16512900  0.83487000  0.83356100  1.0
  Cr  Cr2  1  0.00144500  0.50072200  0.49956800  1.0
  Cr  Cr3  1  0.16512900  0.33025800  0.83356100  1.0
  Cr  Cr4  1  0.49927700  0.50072200  0.49956800  1.0
  Cr  Cr5  1  0.66666667  0.33333333  0.33432900  1.0
  Cr  Cr6  1  0.66666667  0.33333333  0.71177800  1.0
  Cr  Cr7  1  0.33506200  0.16753100  0.16816900  1.0
  Cr  Cr8  1  0.49927700  0.99855400  0.49956800  1.0
  Cr  Cr9  1  0.83246900  0.16753100  0.16816900  1.0
  Cr  Cr10  1  0.83246900  0.66493800  0.16816900  1.0
  Cr  Cr11  1  0.33333333  0.66666667  0.04461200  1.0
