# generated using pymatgen
data_Cr
_symmetry_space_group_name_H-M   'P 1'
_cell_length_a   5.99975779
_cell_length_b   5.99975779
_cell_length_c   6.05605351
_cell_angle_alpha   60.30702933
_cell_angle_beta   60.30702933
_cell_angle_gamma   60.00000234
_symmetry_Int_Tables_number   1
_chemical_formula_structural   Cr
_chemical_formula_sum   Cr4
_cell_volume   154.86101054
_cell_formula_units_Z   4
loop_
 _symmetry_equiv_pos_site_id
 _symmetry_equiv_pos_as_xyz
  1  'x, y, z'
loop_
 _atom_site_type_symbol
 _atom_site_label
 _atom_site_symmetry_multiplicity
 _atom_site_fract_x
 _atom_site_fract_y
 _atom_site_fract_z
 _atom_site_occupancy
  Cr  Cr0  1  0.24548400  0.24548400  0.26354800  1.0
  Cr  Cr1  1  0.62569500  0.62569500  0.62706500  1.0
  Cr  Cr2  1  0.62569500  0.12154500  0.62706500  1.0
  Cr  Cr3  1  0.12154500  0.62569500  0.62706500  1.0
