# generated using pymatgen
data_Cr
_symmetry_space_group_name_H-M   'P 1'
_cell_length_a   2.94625200
_cell_length_b   9.00905900
_cell_length_c   10.57362600
_cell_angle_alpha   90.00000000
_cell_angle_beta   90.00000000
_cell_angle_gamma   90.00000000
_symmetry_Int_Tables_number   1
_chemical_formula_structural   Cr
_chemical_formula_sum   Cr8
_cell_volume   280.65531185
_cell_formula_units_Z   8
loop_
 _symmetry_equiv_pos_site_id
 _symmetry_equiv_pos_as_xyz
  1  'x, y, z'
loop_
 _atom_site_type_symbol
 _atom_site_label
 _atom_site_symmetry_multiplicity
 _atom_site_fract_x
 _atom_site_fract_y
 _atom_site_fract_z
 _atom_site_occupancy
  Cr  Cr0  1  0.75000000  0.41220900  0.60137600  1.0
  Cr  Cr1  1  0.25000000  0.08779100  0.10137600  1.0
  Cr  Cr2  1  0.75000000  0.91220900  0.89862400  1.0
  Cr  Cr3  1  0.25000000  0.58779100  0.39862400  1.0
  Cr  Cr4  1  0.25000000  0.55839800  0.88167900  1.0
  Cr  Cr5  1  0.75000000  0.44160200  0.11832100  1.0
  Cr  Cr6  1  0.25000000  0.05839800  0.61832100  1.0
  Cr  Cr7  1  0.75000000  0.94160200  0.38167900  1.0
