# generated using pymatgen
data_FeO
_symmetry_space_group_name_H-M   'P 1'
_cell_length_a   10.50191212
_cell_length_b   11.03702129
_cell_length_c   9.92796734
_cell_angle_alpha   91.34188544
_cell_angle_beta   91.75438654
_cell_angle_gamma   89.83269084
_symmetry_Int_Tables_number   1
_chemical_formula_structural   FeO
_chemical_formula_sum   'Fe40 O40'
_cell_volume   1149.89133774
_cell_formula_units_Z   40
loop_
 _symmetry_equiv_pos_site_id
 _symmetry_equiv_pos_as_xyz
  1  'x, y, z'
loop_
 _atom_site_type_symbol
 _atom_site_label
 _atom_site_symmetry_multiplicity
 _atom_site_fract_x
 _atom_site_fract_y
 _atom_site_fract_z
 _atom_site_occupancy
  Fe  Fe0  1  0.18453852  0.62977713  0.71425734  1
  Fe  Fe1  1  0.20391543  0.82362015  0.03967626  1
  Fe  Fe2  1  0.77173122  0.09314502  0.64690134  1
  Fe  Fe3  1  0.04374434  0.91323372  0.78696332  1
  Fe  Fe4  1  0.00835135  0.90643692  0.21408919  1
  Fe  Fe5  1  0.01183132  0.05215035  0.54455139  1
  Fe  Fe6  1  0.12564082  0.62236971  0.21473235  1
  Fe  Fe7  1  0.78576031  0.90733529  0.41165033  1
  Fe  Fe8  1  0.21993521  0.40036427  0.09986125  1
  Fe  Fe9  1  0.32032521  0.39186781  0.68657909  1
  Fe  Fe10  1  0.71788574  0.56137879  0.94916860  1
  Fe  Fe11  1  0.53482597  0.53863318  0.64532621  1
  Fe  Fe12  1  0.32792455  0.90915721  0.80793712  1
  Fe  Fe13  1  0.53648217  0.07976637  0.42929293  1
  Fe  Fe14  1  0.90745626  0.26596621  0.43175381  1
  Fe  Fe15  1  0.95159995  0.34592965  0.04452715  1
  Fe  Fe16  1  0.80845869  0.38762338  0.71874857  1
  Fe  Fe17  1  0.48921040  0.94879254  0.03243751  1
  Fe  Fe18  1  0.49250489  0.18220248  0.77375158  1
  Fe  Fe19  1  0.37765515  0.59049311  0.35292116  1
  Fe  Fe20  1  0.70933600  0.79339779  0.13153731  1
  Fe  Fe21  1  0.50309253  0.83697756  0.56877976  1
  Fe  Fe22  1  0.75536094  0.82937886  0.79988323  1
  Fe  Fe23  1  0.07485893  0.28573087  0.75673738  1
  Fe  Fe24  1  0.96371316  0.49655741  0.52525918  1
  Fe  Fe25  1  0.97930556  0.74440680  0.44643291  1
  Fe  Fe26  1  0.75801311  0.65104829  0.59515273  1
  Fe  Fe27  1  0.24108972  0.14606262  0.94548318  1
  Fe  Fe28  1  0.44758716  0.66455427  0.07939372  1
  Fe  Fe29  1  0.77473829  0.11283183  0.24447264  1
  Fe  Fe30  1  0.98657495  0.67350622  0.98460188  1
  Fe  Fe31  1  0.48230277  0.33407874  0.46296257  1
  Fe  Fe32  1  0.71365891  0.23740674  0.96516101  1
  Fe  Fe33  1  0.18605730  0.37127800  0.44642823  1
  Fe  Fe34  1  0.47466782  0.40980218  0.93570848  1
  Fe  Fe35  1  0.70172448  0.54237296  0.31751567  1
  Fe  Fe36  1  0.20326289  0.11592419  0.28124443  1
  Fe  Fe37  1  0.36974786  0.87115349  0.28258484  1
  Fe  Fe38  1  0.46357460  0.19541790  0.18099218  1
  Fe  Fe39  1  0.27410194  0.09497221  0.60615612  1
  O  O40  1  0.12253723  0.41609145  0.62752422  1
  O  O41  1  0.51838122  0.37012820  0.75388760  1
  O  O42  1  0.07519563  0.63951234  0.54911640  1
  O  O43  1  0.79215390  0.70574682  0.41433234  1
  O  O44  1  0.54851744  0.86871242  0.18953148  1
  O  O45  1  0.42326078  0.06283025  0.90557505  1
  O  O46  1  0.99792241  0.91218590  0.42219166  1
  O  O47  1  0.61455669  0.75509208  0.69081127  1
  O  O48  1  0.63767658  0.61178015  0.12975927  1
  O  O49  1  0.82744921  0.09899538  0.44990167  1
  O  O50  1  0.53596201  0.49747380  0.43113603  1
  O  O51  1  0.87425544  0.93195607  0.70484742  1
  O  O52  1  0.09854157  0.19577088  0.42538018  1
  O  O53  1  0.38804907  0.80295174  0.96041795  1
  O  O54  1  0.36307969  0.93731978  0.62028782  1
  O  O55  1  0.23184410  0.46780022  0.29318761  1
  O  O56  1  0.84110647  0.42953885  0.39490143  1
  O  O57  1  0.61191575  0.19532307  0.31456079  1
  O  O58  1  0.90720001  0.24571662  0.65746796  1
  O  O59  1  0.68336508  0.14098383  0.80922261  1
  O  O60  1  0.80732281  0.73307013  0.96152908  1
  O  O61  1  0.18738027  0.94039677  0.20521364  1
  O  O62  1  0.84567309  0.20114241  0.09565551  1
  O  O63  1  0.27972409  0.23329653  0.14247307  1
  O  O64  1  0.35472504  0.49696219  0.03919163  1
  O  O65  1  0.63058524  0.95466514  0.51753549  1
  O  O66  1  0.43731464  0.74764077  0.42441238  1
  O  O67  1  0.45760800  0.18432675  0.55845606  1
  O  O68  1  0.39278572  0.05761800  0.31104627  1
  O  O69  1  0.82288906  0.92928392  0.20666757  1
  O  O70  1  0.11552306  0.29988432  0.95841882  1
  O  O71  1  0.35497291  0.56780469  0.70103185  1
  O  O72  1  0.10989618  0.73695766  0.85708109  1
  O  O73  1  0.72138718  0.54363538  0.74018697  1
  O  O74  1  0.26629338  0.22464742  0.74538313  1
  O  O75  1  0.17039451  0.97790698  0.91034465  1
  O  O76  1  0.55281777  0.27712197  0.03584004  1
  O  O77  1  0.04198250  0.51138945  0.08518391  1
  O  O78  1  0.79273981  0.39254891  0.93276178  1
  O  O79  1  0.28773404  0.70523258  0.20344129  1
