# generated using pymatgen
data_Fe
_symmetry_space_group_name_H-M   'P 1'
_cell_length_a   10.40633048
_cell_length_b   10.45599025
_cell_length_c   10.70864216
_cell_angle_alpha   92.01596511
_cell_angle_beta   90.48748304
_cell_angle_gamma   91.19110070
_symmetry_Int_Tables_number   1
_chemical_formula_structural   Fe
_chemical_formula_sum   Fe100
_cell_volume   1164.16861488
_cell_formula_units_Z   100
loop_
 _symmetry_equiv_pos_site_id
 _symmetry_equiv_pos_as_xyz
  1  'x, y, z'
loop_
 _atom_site_type_symbol
 _atom_site_label
 _atom_site_symmetry_multiplicity
 _atom_site_fract_x
 _atom_site_fract_y
 _atom_site_fract_z
 _atom_site_occupancy
  Fe  Fe0  1  0.56778127  0.60394977  0.53871379  1.0
  Fe  Fe1  1  0.82153601  0.37245162  0.75253255  1.0
  Fe  Fe2  1  0.85259786  0.73812013  0.17777319  1.0
  Fe  Fe3  1  0.16926847  0.96052132  0.34486448  1.0
  Fe  Fe4  1  0.78493033  0.58304227  0.80739636  1.0
  Fe  Fe5  1  0.70178012  0.12192126  0.23254841  1.0
  Fe  Fe6  1  0.38933580  0.73752833  0.55213685  1.0
  Fe  Fe7  1  0.00584260  0.77683774  0.51915989  1.0
  Fe  Fe8  1  0.97047448  0.54487759  0.64967821  1.0
  Fe  Fe9  1  0.03503749  0.96187171  0.71412897  1.0
  Fe  Fe10  1  0.21326265  0.89679189  0.57770050  1.0
  Fe  Fe11  1  0.14644103  0.08512037  0.89979655  1.0
  Fe  Fe12  1  0.90545913  0.76706350  0.75133857  1.0
  Fe  Fe13  1  0.03331002  0.87340971  0.92800258  1.0
  Fe  Fe14  1  0.12789245  0.23925805  0.38114995  1.0
  Fe  Fe15  1  0.41099281  0.94683955  0.45740115  1.0
  Fe  Fe16  1  0.41649282  0.48371331  0.82821937  1.0
  Fe  Fe17  1  0.08844815  0.82797661  0.16770565  1.0
  Fe  Fe18  1  0.80561505  0.95957557  0.82605408  1.0
  Fe  Fe19  1  0.56757959  0.21791707  0.00970000  1.0
  Fe  Fe20  1  0.59635340  0.50577714  0.33994516  1.0
  Fe  Fe21  1  0.38912746  0.61712088  0.02334685  1.0
  Fe  Fe22  1  0.27685752  0.12058270  0.49981042  1.0
  Fe  Fe23  1  0.50098240  0.27742118  0.78994935  1.0
  Fe  Fe24  1  0.18619084  0.47548342  0.99483908  1.0
  Fe  Fe25  1  0.64508593  0.87341768  0.96616582  1.0
  Fe  Fe26  1  0.38754891  0.48381970  0.21453449  1.0
  Fe  Fe27  1  0.60350712  0.47777401  0.71314047  1.0
  Fe  Fe28  1  0.82295864  0.76104906  0.95710917  1.0
  Fe  Fe29  1  0.90751227  0.20019769  0.09776039  1.0
  Fe  Fe30  1  0.93477989  0.14877836  0.88563303  1.0
  Fe  Fe31  1  0.33292957  0.29661139  0.64239215  1.0
  Fe  Fe32  1  0.04286767  0.35202305  0.79066452  1.0
  Fe  Fe33  1  0.44655343  0.90841697  0.68593871  1.0
  Fe  Fe34  1  0.24748976  0.31096155  0.18489032  1.0
  Fe  Fe35  1  0.73744253  0.33352068  0.13239502  1.0
  Fe  Fe36  1  0.37237979  0.50627030  0.61297617  1.0
  Fe  Fe37  1  0.87458492  0.12556875  0.67687876  1.0
  Fe  Fe38  1  0.68777908  0.24925706  0.61014733  1.0
  Fe  Fe39  1  0.96594342  0.46906114  0.42583887  1.0
  Fe  Fe40  1  0.02564109  0.39788835  0.18726513  1.0
  Fe  Fe41  1  0.24549411  0.95767416  0.04984339  1.0
  Fe  Fe42  1  0.42054647  0.38512158  0.01174198  1.0
  Fe  Fe43  1  0.57248298  0.72820602  0.12737051  1.0
  Fe  Fe44  1  0.00620276  0.59551245  0.87542309  1.0
  Fe  Fe45  1  0.53921596  0.14752768  0.40357011  1.0
  Fe  Fe46  1  0.91126216  0.92172269  0.33205306  1.0
  Fe  Fe47  1  0.91387251  0.96648783  0.09564189  1.0
  Fe  Fe48  1  0.35003625  0.32263297  0.39685597  1.0
  Fe  Fe49  1  0.60179153  0.82037080  0.54405424  1.0
  Fe  Fe50  1  0.32244580  0.10124135  0.75495957  1.0
  Fe  Fe51  1  0.26086487  0.30357288  0.85259422  1.0
  Fe  Fe52  1  0.64341652  0.78567910  0.75676937  1.0
  Fe  Fe53  1  0.83379857  0.90492991  0.57396434  1.0
  Fe  Fe54  1  0.65868325  0.02026255  0.65236491  1.0
  Fe  Fe55  1  0.24486147  0.74979556  0.36980657  1.0
  Fe  Fe56  1  0.92932482  0.29331770  0.55047740  1.0
  Fe  Fe57  1  0.14879389  0.38634370  0.56371215  1.0
  Fe  Fe58  1  0.10057025  0.27044454  0.01139810  1.0
  Fe  Fe59  1  0.77286215  0.68142814  0.60611426  1.0
  Fe  Fe60  1  0.67665554  0.93863195  0.39582678  1.0
  Fe  Fe61  1  0.50808428  0.28020851  0.21534209  1.0
  Fe  Fe62  1  0.71212739  0.90055609  0.18085077  1.0
  Fe  Fe63  1  0.71232101  0.18951452  0.82798457  1.0
  Fe  Fe64  1  0.33347565  0.10644538  0.26453952  1.0
  Fe  Fe65  1  0.02223021  0.05357186  0.49374058  1.0
  Fe  Fe66  1  0.72035901  0.31206966  0.37879977  1.0
  Fe  Fe67  1  0.37592274  0.56514800  0.40965400  1.0
  Fe  Fe68  1  0.52691665  0.36483779  0.52108701  1.0
  Fe  Fe69  1  0.58667936  0.50307474  0.11818513  1.0
  Fe  Fe70  1  0.65754464  0.40402294  0.91910308  1.0
  Fe  Fe71  1  0.01708422  0.66110604  0.31798027  1.0
  Fe  Fe72  1  0.81111737  0.51596228  0.26000991  1.0
  Fe  Fe73  1  0.34759055  0.81525805  0.17717454  1.0
  Fe  Fe74  1  0.58162877  0.63288669  0.91083006  1.0
  Fe  Fe75  1  0.21343118  0.61967038  0.18185758  1.0
  Fe  Fe76  1  0.73213445  0.07659573  0.01562858  1.0
  Fe  Fe77  1  0.50743019  0.95926866  0.27077970  1.0
  Fe  Fe78  1  0.76220886  0.70724965  0.38581243  1.0
  Fe  Fe79  1  0.12402518  0.73530001  0.73151600  1.0
  Fe  Fe80  1  0.33028451  0.17271696  0.02821622  1.0
  Fe  Fe81  1  0.19971812  0.52004602  0.76451625  1.0
  Fe  Fe82  1  0.90285938  0.39253444  0.97154820  1.0
  Fe  Fe83  1  0.48033033  0.13076302  0.60538515  1.0
  Fe  Fe84  1  0.19972436  0.72347713  0.96775891  1.0
  Fe  Fe85  1  0.48959858  0.01150495  0.07936428  1.0
  Fe  Fe86  1  0.77944768  0.56616545  0.03544536  1.0
  Fe  Fe87  1  0.91646079  0.21464448  0.31240225  1.0
  Fe  Fe88  1  0.53123431  0.03882403  0.85227671  1.0
  Fe  Fe89  1  0.17856277  0.47606249  0.34927303  1.0
  Fe  Fe90  1  0.10159356  0.10686636  0.17483106  1.0
  Fe  Fe91  1  0.36410948  0.69436792  0.76736337  1.0
  Fe  Fe92  1  0.75971236  0.46950853  0.53223224  1.0
  Fe  Fe93  1  0.25375275  0.90111261  0.81979514  1.0
  Fe  Fe94  1  0.43180575  0.83278393  0.94062171  1.0
  Fe  Fe95  1  0.17231101  0.61705909  0.53943211  1.0
  Fe  Fe96  1  0.12077271  0.17599449  0.66939377  1.0
  Fe  Fe97  1  0.78800245  0.10774231  0.46486935  1.0
  Fe  Fe98  1  0.50636801  0.74002450  0.34267639  1.0
  Fe  Fe99  1  0.00416374  0.60283431  0.09001870  1.0
