# generated using pymatgen
data_Cr
_symmetry_space_group_name_H-M   'P 1'
_cell_length_a   4.01431400
_cell_length_b   6.98360386
_cell_length_c   7.30350655
_cell_angle_alpha   117.05083832
_cell_angle_beta   105.95134742
_cell_angle_gamma   90.00000000
_symmetry_Int_Tables_number   1
_chemical_formula_structural   Cr
_chemical_formula_sum   Cr3
_cell_volume   173.45148430
_cell_formula_units_Z   3
loop_
 _symmetry_equiv_pos_site_id
 _symmetry_equiv_pos_as_xyz
  1  'x, y, z'
loop_
 _atom_site_type_symbol
 _atom_site_label
 _atom_site_symmetry_multiplicity
 _atom_site_fract_x
 _atom_site_fract_y
 _atom_site_fract_z
 _atom_site_occupancy
  Cr  Cr0  1  0.00000000  0.00000000  0.00000000  1.0
  Cr  Cr1  1  0.73929700  0.72019300  0.47859400  1.0
  Cr  Cr2  1  0.26070300  0.27980700  0.52140600  1.0
