# generated using pymatgen
data_DyCu
_symmetry_space_group_name_H-M   'P 1'
_cell_length_a   4.27063800
_cell_length_b   4.27063800
_cell_length_c   7.19743700
_cell_angle_alpha   90.00000000
_cell_angle_beta   90.00000000
_cell_angle_gamma   119.99999999
_symmetry_Int_Tables_number   1
_chemical_formula_structural   DyCu
_chemical_formula_sum   'Dy2 Cu2'
_cell_volume   113.68260687
_cell_formula_units_Z   2
loop_
 _symmetry_equiv_pos_site_id
 _symmetry_equiv_pos_as_xyz
  1  'x, y, z'
loop_
 _atom_site_type_symbol
 _atom_site_label
 _atom_site_symmetry_multiplicity
 _atom_site_fract_x
 _atom_site_fract_y
 _atom_site_fract_z
 _atom_site_occupancy
  Dy  Dy0  1  0.00000000  0.00000000  0.23933200  1.0
  Dy  Dy1  1  0.00000000  0.00000000  0.73933200  1.0
  Cu  Cu2  1  0.33333333  0.66666667  0.45293100  1.0
  Cu  Cu3  1  0.66666667  0.33333333  0.95293100  1.0
