# generated using pymatgen
data_Mn
_symmetry_space_group_name_H-M   'P 1'
_cell_length_a   2.89490084
_cell_length_b   5.07441134
_cell_length_c   7.68543750
_cell_angle_alpha   72.19493262
_cell_angle_beta   79.15429368
_cell_angle_gamma   89.99952944
_symmetry_Int_Tables_number   1
_chemical_formula_structural   Mn
_chemical_formula_sum   Mn2
_cell_volume   105.37083555
_cell_formula_units_Z   2
loop_
 _symmetry_equiv_pos_site_id
 _symmetry_equiv_pos_as_xyz
  1  'x, y, z'
loop_
 _atom_site_type_symbol
 _atom_site_label
 _atom_site_symmetry_multiplicity
 _atom_site_fract_x
 _atom_site_fract_y
 _atom_site_fract_z
 _atom_site_occupancy
  Mn  Mn0  1  0.00435850  0.99557350  0.99067050  1.0
  Mn  Mn1  1  0.32899250  0.00447050  0.34249450  1.0
