# generated using pymatgen
data_Mn
_symmetry_space_group_name_H-M   'P 1'
_cell_length_a   2.85446600
_cell_length_b   3.02281000
_cell_length_c   15.20006504
_cell_angle_alpha   92.60623183
_cell_angle_beta   90.00000000
_cell_angle_gamma   118.17423350
_symmetry_Int_Tables_number   1
_chemical_formula_structural   Mn
_chemical_formula_sum   Mn2
_cell_volume   115.46031575
_cell_formula_units_Z   2
loop_
 _symmetry_equiv_pos_site_id
 _symmetry_equiv_pos_as_xyz
  1  'x, y, z'
loop_
 _atom_site_type_symbol
 _atom_site_label
 _atom_site_symmetry_multiplicity
 _atom_site_fract_x
 _atom_site_fract_y
 _atom_site_fract_z
 _atom_site_occupancy
  Mn  Mn0  1  0.82910500  0.65821000  0.66556100  1.0
  Mn  Mn1  1  0.17089500  0.34179000  0.33443900  1.0
