# generated using pymatgen
data_Mn
_symmetry_space_group_name_H-M   'P 1'
_cell_length_a   2.89032102
_cell_length_b   5.93693153
_cell_length_c   6.44644938
_cell_angle_alpha   103.49242295
_cell_angle_beta   102.92103449
_cell_angle_gamma   90.15226613
_symmetry_Int_Tables_number   1
_chemical_formula_structural   Mn
_chemical_formula_sum   Mn2
_cell_volume   104.66651254
_cell_formula_units_Z   2
loop_
 _symmetry_equiv_pos_site_id
 _symmetry_equiv_pos_as_xyz
  1  'x, y, z'
loop_
 _atom_site_type_symbol
 _atom_site_label
 _atom_site_symmetry_multiplicity
 _atom_site_fract_x
 _atom_site_fract_y
 _atom_site_fract_z
 _atom_site_occupancy
  Mn  Mn0  1  0.99247900  0.99250150  0.98684000  1.0
  Mn  Mn1  1  0.67418200  0.34083200  0.34649500  1.0
