# generated using pymatgen
data_Mn
_symmetry_space_group_name_H-M   'P 1'
_cell_length_a   2.89242786
_cell_length_b   5.09526088
_cell_length_c   7.72131418
_cell_angle_alpha   76.57419199
_cell_angle_beta   79.32869356
_cell_angle_gamma   73.71541849
_symmetry_Int_Tables_number   1
_chemical_formula_structural   Mn
_chemical_formula_sum   Mn2
_cell_volume   105.36161148
_cell_formula_units_Z   2
loop_
 _symmetry_equiv_pos_site_id
 _symmetry_equiv_pos_as_xyz
  1  'x, y, z'
loop_
 _atom_site_type_symbol
 _atom_site_label
 _atom_site_symmetry_multiplicity
 _atom_site_fract_x
 _atom_site_fract_y
 _atom_site_fract_z
 _atom_site_occupancy
  Mn  Mn0  1  0.99867700  0.01187100  0.98890500  1.0
  Mn  Mn1  1  0.33465800  0.98810800  0.34443200  1.0
