# generated using pymatgen
data_Mn
_symmetry_space_group_name_H-M   'P 1'
_cell_length_a   5.00244689
_cell_length_b   5.00244388
_cell_length_c   5.08972689
_cell_angle_alpha   99.60048323
_cell_angle_beta   99.60053031
_cell_angle_gamma   119.89705373
_symmetry_Int_Tables_number   1
_chemical_formula_structural   Mn
_chemical_formula_sum   Mn2
_cell_volume   104.11454438
_cell_formula_units_Z   2
loop_
 _symmetry_equiv_pos_site_id
 _symmetry_equiv_pos_as_xyz
  1  'x, y, z'
loop_
 _atom_site_type_symbol
 _atom_site_label
 _atom_site_symmetry_multiplicity
 _atom_site_fract_x
 _atom_site_fract_y
 _atom_site_fract_z
 _atom_site_occupancy
  Mn  Mn0  1  0.83311750  0.16686350  0.00000000  1.0
  Mn  Mn1  1  0.16688750  0.83313750  0.00000600  1.0
