# generated using pymatgen
data_Fe
_symmetry_space_group_name_H-M   'P 1'
_cell_length_a   3.32450604
_cell_length_b   3.32450604
_cell_length_c   11.40320825
_cell_angle_alpha   81.61809421
_cell_angle_beta   81.61809421
_cell_angle_gamma   59.99999932
_symmetry_Int_Tables_number   1
_chemical_formula_structural   Fe
_chemical_formula_sum   Fe3
_cell_volume   107.58974182
_cell_formula_units_Z   3
loop_
 _symmetry_equiv_pos_site_id
 _symmetry_equiv_pos_as_xyz
  1  'x, y, z'
loop_
 _atom_site_type_symbol
 _atom_site_label
 _atom_site_symmetry_multiplicity
 _atom_site_fract_x
 _atom_site_fract_y
 _atom_site_fract_z
 _atom_site_occupancy
  Fe  Fe0  1  0.57728300  0.57728300  0.26815100  1.0
  Fe  Fe1  1  0.42271700  0.42271700  0.73184900  1.0
  Fe  Fe2  1  0.50000000  0.50000000  0.50000000  1.0
