# generated using pymatgen
data_Tb2Co3
_symmetry_space_group_name_H-M   'P 1'
_cell_length_a   5.52670442
_cell_length_b   7.88719500
_cell_length_c   7.88719500
_cell_angle_alpha   93.40267668
_cell_angle_beta   109.22227528
_cell_angle_gamma   109.22227528
_symmetry_Int_Tables_number   1
_chemical_formula_structural   Tb2Co3
_chemical_formula_sum   'Tb4 Co6'
_cell_volume   301.06356992
_cell_formula_units_Z   2
loop_
 _symmetry_equiv_pos_site_id
 _symmetry_equiv_pos_as_xyz
  1  'x, y, z'
loop_
 _atom_site_type_symbol
 _atom_site_label
 _atom_site_symmetry_multiplicity
 _atom_site_fract_x
 _atom_site_fract_y
 _atom_site_fract_z
 _atom_site_occupancy
  Tb  Tb0  1  0.23692100  0.59840100  0.86947000  1.0
  Tb  Tb1  1  0.26307900  0.13053000  0.40159900  1.0
  Tb  Tb2  1  0.76307900  0.40159900  0.13053000  1.0
  Tb  Tb3  1  0.73692100  0.86947000  0.59840100  1.0
  Co  Co4  1  0.87367900  0.26321100  0.53900000  1.0
  Co  Co5  1  0.75000000  0.00389000  0.99611000  1.0
  Co  Co6  1  0.37367900  0.53900000  0.26321100  1.0
  Co  Co7  1  0.12632100  0.73678900  0.46100000  1.0
  Co  Co8  1  0.62632100  0.46100000  0.73678900  1.0
  Co  Co9  1  0.25000000  0.99611000  0.00389000  1.0
