# generated using pymatgen
data_Th
_symmetry_space_group_name_H-M   'P 1'
_cell_length_a   6.85824537
_cell_length_b   6.85824537
_cell_length_c   6.85824518
_cell_angle_alpha   82.98781973
_cell_angle_beta   82.98781973
_cell_angle_gamma   82.98782254
_symmetry_Int_Tables_number   1
_chemical_formula_structural   Th
_chemical_formula_sum   Th2
_cell_volume   315.88722131
_cell_formula_units_Z   2
loop_
 _symmetry_equiv_pos_site_id
 _symmetry_equiv_pos_as_xyz
  1  'x, y, z'
loop_
 _atom_site_type_symbol
 _atom_site_label
 _atom_site_symmetry_multiplicity
 _atom_site_fract_x
 _atom_site_fract_y
 _atom_site_fract_z
 _atom_site_occupancy
  Th  Th0  1  0.66299200  0.66299200  0.66299200  1.0
  Th  Th1  1  0.33700800  0.33700800  0.33700800  1.0
