# generated using pymatgen
data_Cu
_symmetry_space_group_name_H-M   'P 1'
_cell_length_a   3.85376200
_cell_length_b   3.86713600
_cell_length_c   14.70696103
_cell_angle_alpha   82.44528149
_cell_angle_beta   90.00000000
_cell_angle_gamma   90.00000000
_symmetry_Int_Tables_number   1
_chemical_formula_structural   Cu
_chemical_formula_sum   Cu4
_cell_volume   217.27563999
_cell_formula_units_Z   4
loop_
 _symmetry_equiv_pos_site_id
 _symmetry_equiv_pos_as_xyz
  1  'x, y, z'
loop_
 _atom_site_type_symbol
 _atom_site_label
 _atom_site_symmetry_multiplicity
 _atom_site_fract_x
 _atom_site_fract_y
 _atom_site_fract_z
 _atom_site_occupancy
  Cu  Cu0  1  1.00000000  0.78535400  0.42929200  1.0
  Cu  Cu1  1  1.00000000  0.08283200  0.83433600  1.0
  Cu  Cu2  1  1.00000000  0.21464600  0.57070800  1.0
  Cu  Cu3  1  0.00000000  0.91716800  0.16566400  1.0
