# generated using pymatgen
data_Mn
_symmetry_space_group_name_H-M   'P 1'
_cell_length_a   3.96080900
_cell_length_b   6.77008500
_cell_length_c   6.77008500
_cell_angle_alpha   90.00000000
_cell_angle_beta   90.00000000
_cell_angle_gamma   90.00000000
_symmetry_Int_Tables_number   1
_chemical_formula_structural   Mn
_chemical_formula_sum   Mn8
_cell_volume   181.53992134
_cell_formula_units_Z   8
loop_
 _symmetry_equiv_pos_site_id
 _symmetry_equiv_pos_as_xyz
  1  'x, y, z'
loop_
 _atom_site_type_symbol
 _atom_site_label
 _atom_site_symmetry_multiplicity
 _atom_site_fract_x
 _atom_site_fract_y
 _atom_site_fract_z
 _atom_site_occupancy
  Mn  Mn0  1  0.12125500  0.62628100  0.87371900  1.0
  Mn  Mn1  1  0.37874500  0.87371900  0.62628100  1.0
  Mn  Mn2  1  0.62125500  0.62628100  0.12628100  1.0
  Mn  Mn3  1  0.87874500  0.12628100  0.62628100  1.0
  Mn  Mn4  1  0.12125500  0.37371900  0.12628100  1.0
  Mn  Mn5  1  0.87874500  0.87371900  0.37371900  1.0
  Mn  Mn6  1  0.62125500  0.37371900  0.87371900  1.0
  Mn  Mn7  1  0.37874500  0.12628100  0.37371900  1.0
