# generated using pymatgen
data_Pa
_symmetry_space_group_name_H-M   'P 1'
_cell_length_a   3.17925400
_cell_length_b   3.19250814
_cell_length_c   3.19250814
_cell_angle_alpha   75.64503536
_cell_angle_beta   60.13724036
_cell_angle_gamma   60.13724036
_symmetry_Int_Tables_number   1
_chemical_formula_structural   Pa
_chemical_formula_sum   Pa1
_cell_volume   24.36959939
_cell_formula_units_Z   1
loop_
 _symmetry_equiv_pos_site_id
 _symmetry_equiv_pos_as_xyz
  1  'x, y, z'
loop_
 _atom_site_type_symbol
 _atom_site_label
 _atom_site_symmetry_multiplicity
 _atom_site_fract_x
 _atom_site_fract_y
 _atom_site_fract_z
 _atom_site_occupancy
  Pa  Pa0  1  0.00000000  0.00000000  0.00000000  1.0
