# generated using pymatgen
data_Nb2Pb
_symmetry_space_group_name_H-M   'P 1'
_cell_length_a   7.31627595
_cell_length_b   7.31627595
_cell_length_c   7.31627631
_cell_angle_alpha   93.59899617
_cell_angle_beta   93.59899617
_cell_angle_gamma   93.59900154
_symmetry_Int_Tables_number   1
_chemical_formula_structural   Nb2Pb
_chemical_formula_sum   'Nb6 Pb3'
_cell_volume   389.20574757
_cell_formula_units_Z   3
loop_
 _symmetry_equiv_pos_site_id
 _symmetry_equiv_pos_as_xyz
  1  'x, y, z'
loop_
 _atom_site_type_symbol
 _atom_site_label
 _atom_site_symmetry_multiplicity
 _atom_site_fract_x
 _atom_site_fract_y
 _atom_site_fract_z
 _atom_site_occupancy
  Nb  Nb0  1  0.86616600  0.16646900  0.52336700  1.0
  Nb  Nb1  1  0.16646900  0.52336700  0.86616600  1.0
  Nb  Nb2  1  0.52336700  0.86616600  0.16646900  1.0
  Nb  Nb3  1  0.47663300  0.13383400  0.83353100  1.0
  Nb  Nb4  1  0.13383400  0.83353100  0.47663300  1.0
  Nb  Nb5  1  0.83353100  0.47663300  0.13383400  1.0
  Pb  Pb6  1  0.31912700  0.31912700  0.31912700  1.0
  Pb  Pb7  1  0.68087300  0.68087300  0.68087300  1.0
  Pb  Pb8  1  0.00000000  0.00000000  0.00000000  1.0
