# generated using pymatgen
data_Nb2Pb
_symmetry_space_group_name_H-M   'P 1'
_cell_length_a   3.94725600
_cell_length_b   12.99088900
_cell_length_c   13.07360430
_cell_angle_alpha   92.22033692
_cell_angle_beta   90.00000000
_cell_angle_gamma   90.00000000
_symmetry_Int_Tables_number   1
_chemical_formula_structural   Nb2Pb
_chemical_formula_sum   'Nb10 Pb5'
_cell_volume   669.88973486
_cell_formula_units_Z   5
loop_
 _symmetry_equiv_pos_site_id
 _symmetry_equiv_pos_as_xyz
  1  'x, y, z'
loop_
 _atom_site_type_symbol
 _atom_site_label
 _atom_site_symmetry_multiplicity
 _atom_site_fract_x
 _atom_site_fract_y
 _atom_site_fract_z
 _atom_site_occupancy
  Nb  Nb0  1  0.00000000  0.06234700  0.29663300  1.0
  Nb  Nb1  1  0.00000000  0.70831000  0.93165000  1.0
  Nb  Nb2  1  0.00000000  0.78893000  0.43968000  1.0
  Nb  Nb3  1  0.00000000  0.56903400  0.21973600  1.0
  Nb  Nb4  1  1.00000000  0.91453000  0.71161300  1.0
  Nb  Nb5  1  0.00000000  0.28145100  0.08543600  1.0
  Nb  Nb6  1  1.00000000  0.49687500  0.50525500  1.0
  Nb  Nb7  1  0.00000000  0.19609300  0.57637700  1.0
  Nb  Nb8  1  0.00000000  0.41409800  0.78511700  1.0
  Nb  Nb9  1  0.00000000  0.99932300  0.00336100  1.0
  Pb  Pb10  1  0.50000000  0.28247200  0.37990600  1.0
  Pb  Pb11  1  0.50000000  0.63031100  0.72338900  1.0
  Pb  Pb12  1  0.50000000  0.12639800  0.83708300  1.0
  Pb  Pb13  1  0.50000000  0.80333700  0.21959800  1.0
  Pb  Pb14  1  0.50000000  0.48667200  0.00798500  1.0
