# generated using pymatgen
data_Nb2Pb
_symmetry_space_group_name_H-M   'P 1'
_cell_length_a   7.31478054
_cell_length_b   7.31478054
_cell_length_c   7.31478084
_cell_angle_alpha   93.64149940
_cell_angle_beta   93.64149940
_cell_angle_gamma   93.64150897
_symmetry_Int_Tables_number   1
_chemical_formula_structural   Nb2Pb
_chemical_formula_sum   'Nb6 Pb3'
_cell_volume   388.90841428
_cell_formula_units_Z   3
loop_
 _symmetry_equiv_pos_site_id
 _symmetry_equiv_pos_as_xyz
  1  'x, y, z'
loop_
 _atom_site_type_symbol
 _atom_site_label
 _atom_site_symmetry_multiplicity
 _atom_site_fract_x
 _atom_site_fract_y
 _atom_site_fract_z
 _atom_site_occupancy
  Nb  Nb0  1  0.16046800  0.45806500  0.79940800  1.0
  Nb  Nb1  1  0.79940800  0.16046800  0.45806500  1.0
  Nb  Nb2  1  0.45806500  0.79940800  0.16046800  1.0
  Nb  Nb3  1  0.18923600  0.84773800  0.49245900  1.0
  Nb  Nb4  1  0.49245900  0.18923600  0.84773800  1.0
  Nb  Nb5  1  0.84773800  0.49245900  0.18923600  1.0
  Pb  Pb6  1  0.00573200  0.00573200  0.00573200  1.0
  Pb  Pb7  1  0.64216200  0.64216200  0.64216200  1.0
  Pb  Pb8  1  0.31400500  0.31400500  0.31400500  1.0
