# generated using pymatgen
data_Nb2Pb
_symmetry_space_group_name_H-M   'P 1'
_cell_length_a   7.90381100
_cell_length_b   12.99899034
_cell_length_c   12.99899034
_cell_angle_alpha   92.01017660
_cell_angle_beta   90.00000000
_cell_angle_gamma   90.00000000
_symmetry_Int_Tables_number   1
_chemical_formula_structural   Nb2Pb
_chemical_formula_sum   'Nb20 Pb10'
_cell_volume   1334.71471043
_cell_formula_units_Z   10
loop_
 _symmetry_equiv_pos_site_id
 _symmetry_equiv_pos_as_xyz
  1  'x, y, z'
loop_
 _atom_site_type_symbol
 _atom_site_label
 _atom_site_symmetry_multiplicity
 _atom_site_fract_x
 _atom_site_fract_y
 _atom_site_fract_z
 _atom_site_occupancy
  Nb  Nb0  1  0.00157700  0.29574700  0.06665800  1.0
  Nb  Nb1  1  0.49842300  0.29574700  0.06665800  1.0
  Nb  Nb2  1  0.50396800  0.08470700  0.28395800  1.0
  Nb  Nb3  1  0.99603200  0.08470700  0.28395800  1.0
  Nb  Nb4  1  0.99598500  0.21457700  0.56530600  1.0
  Nb  Nb5  1  0.50401500  0.21457700  0.56530600  1.0
  Nb  Nb6  1  0.00234800  0.58205300  0.20573600  1.0
  Nb  Nb7  1  0.49765200  0.58205300  0.20573600  1.0
  Nb  Nb8  1  0.00000000  0.00434800  0.99565200  1.0
  Nb  Nb9  1  1.00000000  0.50377400  0.49622600  1.0
  Nb  Nb10  1  0.50000000  0.50377400  0.49622600  1.0
  Nb  Nb11  1  0.50000000  0.00434800  0.99565200  1.0
  Nb  Nb12  1  0.99765200  0.79426400  0.41794700  1.0
  Nb  Nb13  1  0.50234800  0.79426400  0.41794700  1.0
  Nb  Nb14  1  0.00401500  0.43469400  0.78542300  1.0
  Nb  Nb15  1  0.49598500  0.43469400  0.78542300  1.0
  Nb  Nb16  1  0.00396800  0.71604200  0.91529300  1.0
  Nb  Nb17  1  0.49603200  0.71604200  0.91529300  1.0
  Nb  Nb18  1  0.99842300  0.93334200  0.70425300  1.0
  Nb  Nb19  1  0.50157700  0.93334200  0.70425300  1.0
  Pb  Pb20  1  0.75000000  0.51713300  0.99196100  1.0
  Pb  Pb21  1  0.75000000  0.37740900  0.27983000  1.0
  Pb  Pb22  1  0.25000000  0.37636300  0.28087500  1.0
  Pb  Pb23  1  0.25000000  0.85875600  0.14512500  1.0
  Pb  Pb24  1  0.75000000  0.21177400  0.79362400  1.0
  Pb  Pb25  1  0.25000000  0.20637600  0.78822600  1.0
  Pb  Pb26  1  0.75000000  0.85487500  0.14124400  1.0
  Pb  Pb27  1  0.75000000  0.71912500  0.62363700  1.0
  Pb  Pb28  1  0.25000000  0.72017000  0.62259100  1.0
  Pb  Pb29  1  0.25000000  0.00803900  0.48286700  1.0
