# generated using pymatgen
data_Fe
_symmetry_space_group_name_H-M   'P 1'
_cell_length_a   5.63801800
_cell_length_b   5.67245700
_cell_length_c   7.27873000
_cell_angle_alpha   89.99977082
_cell_angle_beta   90.00056793
_cell_angle_gamma   89.99798385
_symmetry_Int_Tables_number   1
_chemical_formula_structural   Fe
_chemical_formula_sum   Fe4
_cell_volume   232.78408225
_cell_formula_units_Z   4
loop_
 _symmetry_equiv_pos_site_id
 _symmetry_equiv_pos_as_xyz
  1  'x, y, z'
loop_
 _atom_site_type_symbol
 _atom_site_label
 _atom_site_symmetry_multiplicity
 _atom_site_fract_x
 _atom_site_fract_y
 _atom_site_fract_z
 _atom_site_occupancy
  Fe  Fe0  1  0.31394900  0.68762400  0.25001300  1.0
  Fe  Fe1  1  0.18605200  0.18761800  0.99998800  1.0
  Fe  Fe2  1  0.81395400  0.81238900  0.49999300  1.0
  Fe  Fe3  1  0.68605700  0.31237900  0.75000400  1.0
