# generated using pymatgen
data_Fe
_symmetry_space_group_name_H-M   'P 1'
_cell_length_a   5.43553800
_cell_length_b   5.79354900
_cell_length_c   7.26280400
_cell_angle_alpha   90.00000000
_cell_angle_beta   90.00000000
_cell_angle_gamma   90.00000000
_symmetry_Int_Tables_number   1
_chemical_formula_structural   Fe
_chemical_formula_sum   Fe4
_cell_volume   228.71336562
_cell_formula_units_Z   4
loop_
 _symmetry_equiv_pos_site_id
 _symmetry_equiv_pos_as_xyz
  1  'x, y, z'
loop_
 _atom_site_type_symbol
 _atom_site_label
 _atom_site_symmetry_multiplicity
 _atom_site_fract_x
 _atom_site_fract_y
 _atom_site_fract_z
 _atom_site_occupancy
  Fe  Fe0  1  0.50721500  0.56693500  0.62661600  1.0
  Fe  Fe1  1  0.50721500  0.06693500  0.87338400  1.0
  Fe  Fe2  1  0.00721500  0.43306500  0.37338400  1.0
  Fe  Fe3  1  0.00721500  0.93306500  0.12661600  1.0
