# generated using pymatgen
data_Mn
_symmetry_space_group_name_H-M   'P 1'
_cell_length_a   5.60291200
_cell_length_b   5.73731400
_cell_length_c   7.75656000
_cell_angle_alpha   90.00000000
_cell_angle_beta   90.00000000
_cell_angle_gamma   89.99995957
_symmetry_Int_Tables_number   1
_chemical_formula_structural   Mn
_chemical_formula_sum   Mn4
_cell_volume   249.33978287
_cell_formula_units_Z   4
loop_
 _symmetry_equiv_pos_site_id
 _symmetry_equiv_pos_as_xyz
  1  'x, y, z'
loop_
 _atom_site_type_symbol
 _atom_site_label
 _atom_site_symmetry_multiplicity
 _atom_site_fract_x
 _atom_site_fract_y
 _atom_site_fract_z
 _atom_site_occupancy
  Mn  Mn0  1  0.50001100  0.99999400  0.99999100  1.0
  Mn  Mn1  1  0.99999700  0.50001500  0.50001300  1.0
  Mn  Mn2  1  0.50000200  0.99999400  0.50000300  1.0
  Mn  Mn3  1  0.00000200  0.50003100  0.00000100  1.0
