# generated using pymatgen
data_Mn
_symmetry_space_group_name_H-M   'P 1'
_cell_length_a   5.48692300
_cell_length_b   10.50010000
_cell_length_c   10.88975525
_cell_angle_alpha   117.83891030
_cell_angle_beta   90.00000000
_cell_angle_gamma   90.00000000
_symmetry_Int_Tables_number   1
_chemical_formula_structural   Mn
_chemical_formula_sum   Mn8
_cell_volume   554.78202965
_cell_formula_units_Z   8
loop_
 _symmetry_equiv_pos_site_id
 _symmetry_equiv_pos_as_xyz
  1  'x, y, z'
loop_
 _atom_site_type_symbol
 _atom_site_label
 _atom_site_symmetry_multiplicity
 _atom_site_fract_x
 _atom_site_fract_y
 _atom_site_fract_z
 _atom_site_occupancy
  Mn  Mn0  1  0.53140100  0.41814600  0.72037100  1.0
  Mn  Mn1  1  0.03140100  0.08185400  0.77962900  1.0
  Mn  Mn2  1  1.00000000  0.50000000  0.00000000  1.0
  Mn  Mn3  1  0.00000000  0.00000000  0.00000000  1.0
  Mn  Mn4  1  0.46859900  0.58185400  0.27962900  1.0
  Mn  Mn5  1  0.50000000  0.50000000  0.50000000  1.0
  Mn  Mn6  1  0.96859900  0.91814600  0.22037100  1.0
  Mn  Mn7  1  0.50000000  0.00000000  0.50000000  1.0
