# generated using pymatgen
data_Mn
_symmetry_space_group_name_H-M   'P 1'
_cell_length_a   5.61453159
_cell_length_b   5.61453159
_cell_length_c   9.86803555
_cell_angle_alpha   91.59475990
_cell_angle_beta   105.28479394
_cell_angle_gamma   119.19317433
_symmetry_Int_Tables_number   1
_chemical_formula_structural   Mn
_chemical_formula_sum   Mn4
_cell_volume   257.39382474
_cell_formula_units_Z   4
loop_
 _symmetry_equiv_pos_site_id
 _symmetry_equiv_pos_as_xyz
  1  'x, y, z'
loop_
 _atom_site_type_symbol
 _atom_site_label
 _atom_site_symmetry_multiplicity
 _atom_site_fract_x
 _atom_site_fract_y
 _atom_site_fract_z
 _atom_site_occupancy
  Mn  Mn0  1  0.53816000  0.77267100  0.75686500  1.0
  Mn  Mn1  1  0.48419400  0.21870500  0.25686500  1.0
  Mn  Mn2  1  0.01431500  0.49682800  0.00670100  1.0
  Mn  Mn3  1  0.00987300  0.99238600  0.50670100  1.0
