# generated using pymatgen
data_Mn
_symmetry_space_group_name_H-M   'P 1'
_cell_length_a   5.62901617
_cell_length_b   5.62945159
_cell_length_c   9.85563016
_cell_angle_alpha   105.05810765
_cell_angle_beta   91.89234458
_cell_angle_gamma   119.16396708
_symmetry_Int_Tables_number   1
_chemical_formula_structural   Mn
_chemical_formula_sum   Mn4
_cell_volume   258.59046609
_cell_formula_units_Z   4
loop_
 _symmetry_equiv_pos_site_id
 _symmetry_equiv_pos_as_xyz
  1  'x, y, z'
loop_
 _atom_site_type_symbol
 _atom_site_label
 _atom_site_symmetry_multiplicity
 _atom_site_fract_x
 _atom_site_fract_y
 _atom_site_fract_z
 _atom_site_occupancy
  Mn  Mn0  1  0.21319700  0.21324100  0.00003700  1.0
  Mn  Mn1  1  0.78725900  0.28721900  0.49996100  1.0
  Mn  Mn2  1  0.00062200  0.74970400  0.25002500  1.0
  Mn  Mn3  1  0.49968600  0.75061100  0.74998500  1.0
