# generated using pymatgen
data_Mn
_symmetry_space_group_name_H-M   'P 1'
_cell_length_a   5.11466595
_cell_length_b   5.20375080
_cell_length_c   5.39767560
_cell_angle_alpha   67.82722842
_cell_angle_beta   61.78088938
_cell_angle_gamma   60.67670372
_symmetry_Int_Tables_number   1
_chemical_formula_structural   Mn
_chemical_formula_sum   Mn4
_cell_volume   108.36055385
_cell_formula_units_Z   4
loop_
 _symmetry_equiv_pos_site_id
 _symmetry_equiv_pos_as_xyz
  1  'x, y, z'
loop_
 _atom_site_type_symbol
 _atom_site_label
 _atom_site_symmetry_multiplicity
 _atom_site_fract_x
 _atom_site_fract_y
 _atom_site_fract_z
 _atom_site_occupancy
  Mn  Mn0  1  0.65319900  0.64862100  0.04766900  1.0
  Mn  Mn1  1  0.34700300  0.35121100  0.95219600  1.0
  Mn  Mn2  1  0.15095000  0.14898000  0.54696300  1.0
  Mn  Mn3  1  0.84904700  0.85110400  0.45320500  1.0
