# generated using pymatgen
data_Mn
_symmetry_space_group_name_H-M   'P 1'
_cell_length_a   9.58026900
_cell_length_b   9.60874200
_cell_length_c   9.65843400
_cell_angle_alpha   90.00000000
_cell_angle_beta   90.00000000
_cell_angle_gamma   90.00000000
_symmetry_Int_Tables_number   1
_chemical_formula_structural   Mn
_chemical_formula_sum   Mn32
_cell_volume   889.10070077
_cell_formula_units_Z   32
loop_
 _symmetry_equiv_pos_site_id
 _symmetry_equiv_pos_as_xyz
  1  'x, y, z'
loop_
 _atom_site_type_symbol
 _atom_site_label
 _atom_site_symmetry_multiplicity
 _atom_site_fract_x
 _atom_site_fract_y
 _atom_site_fract_z
 _atom_site_occupancy
  Mn  Mn0  1  0.50000000  0.50000000  0.00000000  1.0
  Mn  Mn1  1  0.50000000  0.00000000  0.50000000  1.0
  Mn  Mn2  1  0.00000000  0.50000000  0.50000000  1.0
  Mn  Mn3  1  0.00000000  0.00000000  0.00000000  1.0
  Mn  Mn4  1  0.00000000  0.00000000  0.50000000  1.0
  Mn  Mn5  1  0.00000000  0.50000000  0.00000000  1.0
  Mn  Mn6  1  0.50000000  0.00000000  0.00000000  1.0
  Mn  Mn7  1  0.50000000  0.50000000  0.50000000  1.0
  Mn  Mn8  1  0.50913600  0.75883900  0.28594100  1.0
  Mn  Mn9  1  0.49086400  0.25883900  0.21405900  1.0
  Mn  Mn10  1  0.99086400  0.24116100  0.78594100  1.0
  Mn  Mn11  1  0.00913600  0.74116100  0.71405900  1.0
  Mn  Mn12  1  0.49086400  0.24116100  0.71405900  1.0
  Mn  Mn13  1  0.50913600  0.74116100  0.78594100  1.0
  Mn  Mn14  1  0.00913600  0.75883900  0.21405900  1.0
  Mn  Mn15  1  0.99086400  0.25883900  0.28594100  1.0
  Mn  Mn16  1  0.25641400  0.78794300  0.99987600  1.0
  Mn  Mn17  1  0.74358600  0.28794300  0.50012400  1.0
  Mn  Mn18  1  0.24358600  0.21205700  0.49987600  1.0
  Mn  Mn19  1  0.75641400  0.71205700  0.00012400  1.0
  Mn  Mn20  1  0.74358600  0.21205700  0.00012400  1.0
  Mn  Mn21  1  0.25641400  0.71205700  0.49987600  1.0
  Mn  Mn22  1  0.75641400  0.78794300  0.50012400  1.0
  Mn  Mn23  1  0.24358600  0.28794300  0.99987600  1.0
  Mn  Mn24  1  0.21575100  0.51179600  0.24663900  1.0
  Mn  Mn25  1  0.78424900  0.01179600  0.25336100  1.0
  Mn  Mn26  1  0.28424900  0.48820400  0.74663900  1.0
  Mn  Mn27  1  0.71575100  0.98820400  0.75336100  1.0
  Mn  Mn28  1  0.78424900  0.48820400  0.75336100  1.0
  Mn  Mn29  1  0.21575100  0.98820400  0.74663900  1.0
  Mn  Mn30  1  0.71575100  0.51179600  0.25336100  1.0
  Mn  Mn31  1  0.28424900  0.01179600  0.24663900  1.0
