# generated using pymatgen
data_Mn
_symmetry_space_group_name_H-M   'P 1'
_cell_length_a   5.30426900
_cell_length_b   8.87067000
_cell_length_c   9.56715800
_cell_angle_alpha   90.00000000
_cell_angle_beta   90.00000000
_cell_angle_gamma   90.00000000
_symmetry_Int_Tables_number   1
_chemical_formula_structural   Mn
_chemical_formula_sum   Mn16
_cell_volume   450.15793537
_cell_formula_units_Z   16
loop_
 _symmetry_equiv_pos_site_id
 _symmetry_equiv_pos_as_xyz
  1  'x, y, z'
loop_
 _atom_site_type_symbol
 _atom_site_label
 _atom_site_symmetry_multiplicity
 _atom_site_fract_x
 _atom_site_fract_y
 _atom_site_fract_z
 _atom_site_occupancy
  Mn  Mn0  1  0.17115700  0.66188600  0.87179800  1.0
  Mn  Mn1  1  0.18521300  0.34808900  0.05443700  1.0
  Mn  Mn2  1  0.16504200  0.01784400  0.86326200  1.0
  Mn  Mn3  1  0.17530500  0.33970700  0.64334500  1.0
  Mn  Mn4  1  0.31478700  0.84808900  0.55443700  1.0
  Mn  Mn5  1  0.33495800  0.51784400  0.36326200  1.0
  Mn  Mn6  1  0.32469500  0.83970700  0.14334500  1.0
  Mn  Mn7  1  0.32884300  0.16188600  0.37179800  1.0
  Mn  Mn8  1  0.67530500  0.16029300  0.64334500  1.0
  Mn  Mn9  1  0.66504200  0.48215600  0.86326200  1.0
  Mn  Mn10  1  0.67115700  0.83811400  0.87179800  1.0
  Mn  Mn11  1  0.68521300  0.15191100  0.05443700  1.0
  Mn  Mn12  1  0.81478700  0.65191100  0.55443700  1.0
  Mn  Mn13  1  0.82469500  0.66029300  0.14334500  1.0
  Mn  Mn14  1  0.83495800  0.98215600  0.36326200  1.0
  Mn  Mn15  1  0.82884300  0.33811400  0.37179800  1.0
