# generated using pymatgen
data_Mn
_symmetry_space_group_name_H-M   'P 1'
_cell_length_a   5.16060758
_cell_length_b   5.16060758
_cell_length_c   5.53831054
_cell_angle_alpha   62.23146420
_cell_angle_beta   62.23146420
_cell_angle_gamma   60.00000545
_symmetry_Int_Tables_number   1
_chemical_formula_structural   Mn
_chemical_formula_sum   Mn4
_cell_volume   107.67545224
_cell_formula_units_Z   4
loop_
 _symmetry_equiv_pos_site_id
 _symmetry_equiv_pos_as_xyz
  1  'x, y, z'
loop_
 _atom_site_type_symbol
 _atom_site_label
 _atom_site_symmetry_multiplicity
 _atom_site_fract_x
 _atom_site_fract_y
 _atom_site_fract_z
 _atom_site_occupancy
  Mn  Mn0  1  0.14950600  0.14950600  0.55148200  1.0
  Mn  Mn1  1  0.64950600  0.64950600  0.05148200  1.0
  Mn  Mn2  1  0.35049400  0.35049400  0.94851800  1.0
  Mn  Mn3  1  0.85049400  0.85049400  0.44851800  1.0
