# generated using pymatgen
data_Mn
_symmetry_space_group_name_H-M   'P 1'
_cell_length_a   8.32545133
_cell_length_b   8.32545133
_cell_length_c   8.32545133
_cell_angle_alpha   109.39943547
_cell_angle_beta   109.42157752
_cell_angle_gamma   109.59271803
_symmetry_Int_Tables_number   1
_chemical_formula_structural   Mn
_chemical_formula_sum   Mn16
_cell_volume   444.22192170
_cell_formula_units_Z   16
loop_
 _symmetry_equiv_pos_site_id
 _symmetry_equiv_pos_as_xyz
  1  'x, y, z'
loop_
 _atom_site_type_symbol
 _atom_site_label
 _atom_site_symmetry_multiplicity
 _atom_site_fract_x
 _atom_site_fract_y
 _atom_site_fract_z
 _atom_site_occupancy
  Mn  Mn0  1  0.03582400  0.25000000  0.78582400  1.0
  Mn  Mn1  1  0.25000000  0.71472200  0.96472200  1.0
  Mn  Mn2  1  0.75000000  0.78527800  0.53527800  1.0
  Mn  Mn3  1  0.00000000  0.50000000  0.50000000  1.0
  Mn  Mn4  1  0.53582400  0.25000000  0.28582400  1.0
  Mn  Mn5  1  0.75000000  0.28527800  0.03527800  1.0
  Mn  Mn6  1  0.25000000  0.21472200  0.46472200  1.0
  Mn  Mn7  1  0.96417600  0.75000000  0.21417600  1.0
  Mn  Mn8  1  0.00000000  0.00000000  0.00000000  1.0
  Mn  Mn9  1  0.46417600  0.75000000  0.71417600  1.0
  Mn  Mn10  1  0.28448800  0.03448800  0.75000000  1.0
  Mn  Mn11  1  0.78448800  0.53448800  0.75000000  1.0
  Mn  Mn12  1  0.71551200  0.96551200  0.25000000  1.0
  Mn  Mn13  1  0.21551200  0.46551200  0.25000000  1.0
  Mn  Mn14  1  0.50000000  1.00000000  0.50000000  1.0
  Mn  Mn15  1  0.50000000  0.50000000  0.00000000  1.0
