# generated using pymatgen
data_Mn
_symmetry_space_group_name_H-M   'P 1'
_cell_length_a   5.03680190
_cell_length_b   5.03850852
_cell_length_c   5.44528467
_cell_angle_alpha   115.16823731
_cell_angle_beta   115.19914756
_cell_angle_gamma   65.89643534
_symmetry_Int_Tables_number   1
_chemical_formula_structural   Mn
_chemical_formula_sum   Mn4
_cell_volume   108.72110248
_cell_formula_units_Z   4
loop_
 _symmetry_equiv_pos_site_id
 _symmetry_equiv_pos_as_xyz
  1  'x, y, z'
loop_
 _atom_site_type_symbol
 _atom_site_label
 _atom_site_symmetry_multiplicity
 _atom_site_fract_x
 _atom_site_fract_y
 _atom_site_fract_z
 _atom_site_occupancy
  Mn  Mn0  1  0.65166100  0.65685300  0.95215500  1.0
  Mn  Mn1  1  0.84216800  0.84821200  0.54656800  1.0
  Mn  Mn2  1  0.15692000  0.15255400  0.45307300  1.0
  Mn  Mn3  1  0.34874300  0.34216700  0.04772100  1.0
