# generated using pymatgen
data_Mn
_symmetry_space_group_name_H-M   'P 1'
_cell_length_a   3.09733200
_cell_length_b   5.34093379
_cell_length_c   15.11435900
_cell_angle_alpha   90.00000000
_cell_angle_beta   90.00000000
_cell_angle_gamma   106.85566038
_symmetry_Int_Tables_number   1
_chemical_formula_structural   Mn
_chemical_formula_sum   Mn8
_cell_volume   239.28969120
_cell_formula_units_Z   8
loop_
 _symmetry_equiv_pos_site_id
 _symmetry_equiv_pos_as_xyz
  1  'x, y, z'
loop_
 _atom_site_type_symbol
 _atom_site_label
 _atom_site_symmetry_multiplicity
 _atom_site_fract_x
 _atom_site_fract_y
 _atom_site_fract_z
 _atom_site_occupancy
  Mn  Mn0  1  0.36309000  0.72618000  0.95268800  1.0
  Mn  Mn1  1  0.63691000  0.27382000  0.04731200  1.0
  Mn  Mn2  1  0.36309000  0.72618000  0.54731200  1.0
  Mn  Mn3  1  0.63691000  0.27382000  0.45268800  1.0
  Mn  Mn4  1  0.90805100  0.81610200  0.36051300  1.0
  Mn  Mn5  1  0.09194900  0.18389800  0.63948700  1.0
  Mn  Mn6  1  0.09194900  0.18389800  0.86051300  1.0
  Mn  Mn7  1  0.90805100  0.81610200  0.13948700  1.0
