# generated using pymatgen
data_Mn
_symmetry_space_group_name_H-M   'P 1'
_cell_length_a   8.32822509
_cell_length_b   8.32822509
_cell_length_c   8.32822509
_cell_angle_alpha   109.47122063
_cell_angle_beta   109.47122064
_cell_angle_gamma   109.47122064
_symmetry_Int_Tables_number   1
_chemical_formula_structural   Mn
_chemical_formula_sum   Mn16
_cell_volume   444.66758607
_cell_formula_units_Z   16
loop_
 _symmetry_equiv_pos_site_id
 _symmetry_equiv_pos_as_xyz
  1  'x, y, z'
loop_
 _atom_site_type_symbol
 _atom_site_label
 _atom_site_symmetry_multiplicity
 _atom_site_fract_x
 _atom_site_fract_y
 _atom_site_fract_z
 _atom_site_occupancy
  Mn  Mn0  1  0.00000000  0.00000000  0.50000000  1.0
  Mn  Mn1  1  1.00000000  0.50000000  1.00000000  1.0
  Mn  Mn2  1  0.50000000  0.50000000  0.50000000  1.0
  Mn  Mn3  1  0.50000000  1.00000000  1.00000000  1.0
  Mn  Mn4  1  0.53573400  0.25000000  0.78573400  1.0
  Mn  Mn5  1  0.96426600  0.75000000  0.71426600  1.0
  Mn  Mn6  1  0.75000000  0.21426600  0.46426600  1.0
  Mn  Mn7  1  0.25000000  0.28573400  0.03573400  1.0
  Mn  Mn8  1  0.28573400  0.53573400  0.75000000  1.0
  Mn  Mn9  1  0.21426600  0.96426600  0.25000000  1.0
  Mn  Mn10  1  0.46426600  0.75000000  0.21426600  1.0
  Mn  Mn11  1  0.03573400  0.25000000  0.28573400  1.0
  Mn  Mn12  1  0.25000000  0.78573400  0.53573400  1.0
  Mn  Mn13  1  0.75000000  0.71426600  0.96426600  1.0
  Mn  Mn14  1  0.71426600  0.46426600  0.25000000  1.0
  Mn  Mn15  1  0.78573400  0.03573400  0.75000000  1.0
