# generated using pymatgen
data_Mn
_symmetry_space_group_name_H-M   'P 1'
_cell_length_a   10.51999036
_cell_length_b   10.51999036
_cell_length_c   10.64882129
_cell_angle_alpha   60.39940383
_cell_angle_beta   60.39940383
_cell_angle_gamma   59.99999775
_symmetry_Int_Tables_number   1
_chemical_formula_structural   Mn
_chemical_formula_sum   Mn32
_cell_volume   838.32580640
_cell_formula_units_Z   32
loop_
 _symmetry_equiv_pos_site_id
 _symmetry_equiv_pos_as_xyz
  1  'x, y, z'
loop_
 _atom_site_type_symbol
 _atom_site_label
 _atom_site_symmetry_multiplicity
 _atom_site_fract_x
 _atom_site_fract_y
 _atom_site_fract_z
 _atom_site_occupancy
  Mn  Mn0  1  0.75173000  0.75037400  0.24576800  1.0
  Mn  Mn1  1  0.25212800  0.75173000  0.24576800  1.0
  Mn  Mn2  1  0.75037400  0.25212800  0.24576800  1.0
  Mn  Mn3  1  0.24827000  0.24962600  0.75423200  1.0
  Mn  Mn4  1  0.74787200  0.24827000  0.75423200  1.0
  Mn  Mn5  1  0.24962600  0.74787200  0.75423200  1.0
  Mn  Mn6  1  0.50000000  1.00000000  0.50000000  1.0
  Mn  Mn7  1  0.00000000  0.50000000  0.50000000  1.0
  Mn  Mn8  1  0.00000000  0.00000000  0.50000000  1.0
  Mn  Mn9  1  0.00000000  0.50000000  0.00000000  1.0
  Mn  Mn10  1  0.50000000  1.00000000  1.00000000  1.0
  Mn  Mn11  1  0.50000000  0.50000000  1.00000000  1.0
  Mn  Mn12  1  0.23697300  0.23697300  0.28908100  1.0
  Mn  Mn13  1  0.76302700  0.76302700  0.71091900  1.0
  Mn  Mn14  1  0.50000000  0.50000000  0.50000000  1.0
  Mn  Mn15  1  0.00000000  0.00000000  0.00000000  1.0
  Mn  Mn16  1  0.13960500  0.60958100  0.11792200  1.0
  Mn  Mn17  1  0.13289200  0.13960500  0.11792200  1.0
  Mn  Mn18  1  0.60958100  0.13289200  0.11792200  1.0
  Mn  Mn19  1  0.86039500  0.39041900  0.88207800  1.0
  Mn  Mn20  1  0.86710800  0.86039500  0.88207800  1.0
  Mn  Mn21  1  0.39041900  0.86710800  0.88207800  1.0
  Mn  Mn22  1  0.63110100  0.63364900  0.62070100  1.0
  Mn  Mn23  1  0.11454900  0.63110100  0.62070100  1.0
  Mn  Mn24  1  0.63364900  0.11454900  0.62070100  1.0
  Mn  Mn25  1  0.36889900  0.36635100  0.37929900  1.0
  Mn  Mn26  1  0.88545100  0.36889900  0.37929900  1.0
  Mn  Mn27  1  0.36635100  0.88545100  0.37929900  1.0
  Mn  Mn28  1  0.61189900  0.61189900  0.16430200  1.0
  Mn  Mn29  1  0.38810100  0.38810100  0.83569800  1.0
  Mn  Mn30  1  0.11586800  0.11586800  0.65239700  1.0
  Mn  Mn31  1  0.88413200  0.88413200  0.34760300  1.0
