# generated using pymatgen
data_Mn
_symmetry_space_group_name_H-M   'P 1'
_cell_length_a   10.49784809
_cell_length_b   10.55604278
_cell_length_c   10.64553619
_cell_angle_alpha   119.58600707
_cell_angle_beta   90.02267276
_cell_angle_gamma   60.18499031
_symmetry_Int_Tables_number   1
_chemical_formula_structural   Mn
_chemical_formula_sum   Mn32
_cell_volume   841.82161464
_cell_formula_units_Z   32
loop_
 _symmetry_equiv_pos_site_id
 _symmetry_equiv_pos_as_xyz
  1  'x, y, z'
loop_
 _atom_site_type_symbol
 _atom_site_label
 _atom_site_symmetry_multiplicity
 _atom_site_fract_x
 _atom_site_fract_y
 _atom_site_fract_z
 _atom_site_occupancy
  Mn  Mn0  1  0.24880315  0.49980027  0.75560987  1.0
  Mn  Mn1  1  0.75119685  0.50019973  0.24439013  1.0
  Mn  Mn2  1  0.24962355  0.00158473  0.75450014  1.0
  Mn  Mn3  1  0.75037645  0.99841527  0.24549986  1.0
  Mn  Mn4  1  0.74888927  0.00375033  0.75385152  1.0
  Mn  Mn5  1  0.25111073  0.99624967  0.24614848  1.0
  Mn  Mn6  1  0.50000000  0.50000000  0.50000000  1.0
  Mn  Mn7  1  0.00000000  0.00000000  0.50000000  1.0
  Mn  Mn8  1  1.00000000  0.50000000  0.50000000  1.0
  Mn  Mn9  1  0.00000000  0.50000000  1.00000000  1.0
  Mn  Mn10  1  0.50000000  1.00000000  1.00000000  1.0
  Mn  Mn11  1  0.50000000  0.50000000  1.00000000  1.0
  Mn  Mn12  1  0.76422706  0.47820530  0.71350371  1.0
  Mn  Mn13  1  0.23577294  0.52179470  0.28649629  1.0
  Mn  Mn14  1  0.50000000  0.00000000  0.50000000  1.0
  Mn  Mn15  1  0.00000000  0.00000000  0.00000000  1.0
  Mn  Mn16  1  0.86144485  0.74665017  0.88155557  1.0
  Mn  Mn17  1  0.13855515  0.25334983  0.11844443  1.0
  Mn  Mn18  1  0.38729848  0.74564641  0.88323149  1.0
  Mn  Mn19  1  0.61270152  0.25435359  0.11676851  1.0
  Mn  Mn20  1  0.86610904  0.27259694  0.88236098  1.0
  Mn  Mn21  1  0.13389096  0.72740306  0.11763902  1.0
  Mn  Mn22  1  0.36932962  0.26406314  0.37888868  1.0
  Mn  Mn23  1  0.63067038  0.73593686  0.62111132  1.0
  Mn  Mn24  1  0.36588714  0.74661224  0.37987901  1.0
  Mn  Mn25  1  0.63411286  0.25338776  0.62012099  1.0
  Mn  Mn26  1  0.88099132  0.75021700  0.38129001  1.0
  Mn  Mn27  1  0.11900868  0.24978300  0.61870999  1.0
  Mn  Mn28  1  0.38951033  0.22462733  0.83788230  1.0
  Mn  Mn29  1  0.61048967  0.77537267  0.16211770  1.0
  Mn  Mn30  1  0.88610669  0.23183745  0.34751152  1.0
  Mn  Mn31  1  0.11389331  0.76816255  0.65248848  1.0
