# generated using pymatgen
data_NiW
_symmetry_space_group_name_H-M   'P 1'
_cell_length_a   5.45414792
_cell_length_b   5.64538800
_cell_length_c   7.78937284
_cell_angle_alpha   89.99876051
_cell_angle_beta   89.46838413
_cell_angle_gamma   89.99947958
_symmetry_Int_Tables_number   1
_chemical_formula_structural   NiW
_chemical_formula_sum   'Ni2 W2'
_cell_volume   239.83055105
_cell_formula_units_Z   2
loop_
 _symmetry_equiv_pos_site_id
 _symmetry_equiv_pos_as_xyz
  1  'x, y, z'
loop_
 _atom_site_type_symbol
 _atom_site_label
 _atom_site_symmetry_multiplicity
 _atom_site_fract_x
 _atom_site_fract_y
 _atom_site_fract_z
 _atom_site_occupancy
  Ni  Ni0  1  0.00000100  0.50000000  0.50000000  1.0
  Ni  Ni1  1  0.50000100  0.00000000  0.00000000  1.0
  W  W2  1  1.00000000  0.50000000  1.00000000  1.0
  W  W3  1  0.50000000  0.00000000  0.50000000  1.0
