# generated using pymatgen
data_NiW
_symmetry_space_group_name_H-M   'P 1'
_cell_length_a   5.54494663
_cell_length_b   5.58393085
_cell_length_c   5.58393085
_cell_angle_alpha   60.85345681
_cell_angle_beta   60.28020966
_cell_angle_gamma   60.28020966
_symmetry_Int_Tables_number   1
_chemical_formula_structural   NiW
_chemical_formula_sum   'Ni1 W1'
_cell_volume   123.54804633
_cell_formula_units_Z   1
loop_
 _symmetry_equiv_pos_site_id
 _symmetry_equiv_pos_as_xyz
  1  'x, y, z'
loop_
 _atom_site_type_symbol
 _atom_site_label
 _atom_site_symmetry_multiplicity
 _atom_site_fract_x
 _atom_site_fract_y
 _atom_site_fract_z
 _atom_site_occupancy
  Ni  Ni0  1  0.50000000  0.51695500  0.48304500  1.0
  W  W1  1  0.00000000  0.01905800  0.98094200  1.0
