# generated using pymatgen
data_FeW
_symmetry_space_group_name_H-M   'P 1'
_cell_length_a   5.83977042
_cell_length_b   5.84096198
_cell_length_c   5.86309434
_cell_angle_alpha   60.13968844
_cell_angle_beta   60.16289797
_cell_angle_gamma   89.78107759
_symmetry_Int_Tables_number   1
_chemical_formula_structural   FeW
_chemical_formula_sum   'Fe1 W1'
_cell_volume   142.32236865
_cell_formula_units_Z   1
loop_
 _symmetry_equiv_pos_site_id
 _symmetry_equiv_pos_as_xyz
  1  'x, y, z'
loop_
 _atom_site_type_symbol
 _atom_site_label
 _atom_site_symmetry_multiplicity
 _atom_site_fract_x
 _atom_site_fract_y
 _atom_site_fract_z
 _atom_site_occupancy
  Fe  Fe0  1  0.50024850  0.50010600  0.99986550  1.0
  W  W1  1  0.99999850  0.99999500  0.00000150  1.0
