# generated using pymatgen
data_Ni
_symmetry_space_group_name_H-M   'P 1'
_cell_length_a   5.04404436
_cell_length_b   5.06223016
_cell_length_c   7.55069837
_cell_angle_alpha   107.22642781
_cell_angle_beta   104.00351988
_cell_angle_gamma   100.02901995
_symmetry_Int_Tables_number   1
_chemical_formula_structural   Ni
_chemical_formula_sum   Ni5
_cell_volume   172.27922140
_cell_formula_units_Z   5
loop_
 _symmetry_equiv_pos_site_id
 _symmetry_equiv_pos_as_xyz
  1  'x, y, z'
loop_
 _atom_site_type_symbol
 _atom_site_label
 _atom_site_symmetry_multiplicity
 _atom_site_fract_x
 _atom_site_fract_y
 _atom_site_fract_z
 _atom_site_occupancy
  Ni  Ni0  1  0.10009400  0.69587500  0.69639000  1.0
  Ni  Ni1  1  0.00000000  0.50000000  0.00000000  1.0
  Ni  Ni2  1  0.69894900  0.89519400  0.89853500  1.0
  Ni  Ni3  1  0.30105100  0.10480600  0.10146500  1.0
  Ni  Ni4  1  0.89990600  0.30412500  0.30361000  1.0
