# generated using pymatgen
data_Ni
_symmetry_space_group_name_H-M   'P 1'
_cell_length_a   5.74643925
_cell_length_b   5.80299261
_cell_length_c   9.98723517
_cell_angle_alpha   73.89629715
_cell_angle_beta   73.28484224
_cell_angle_gamma   60.37462328
_symmetry_Int_Tables_number   1
_chemical_formula_structural   Ni
_chemical_formula_sum   Ni8
_cell_volume   273.59041094
_cell_formula_units_Z   8
loop_
 _symmetry_equiv_pos_site_id
 _symmetry_equiv_pos_as_xyz
  1  'x, y, z'
loop_
 _atom_site_type_symbol
 _atom_site_label
 _atom_site_symmetry_multiplicity
 _atom_site_fract_x
 _atom_site_fract_y
 _atom_site_fract_z
 _atom_site_occupancy
  Ni  Ni0  1  0.99776100  0.99730300  0.00049100  1.0
  Ni  Ni1  1  0.50217800  0.50275400  0.49945400  1.0
  Ni  Ni2  1  0.75016300  0.24999700  0.74996100  1.0
  Ni  Ni3  1  0.24987400  0.74992600  0.24999200  1.0
  Ni  Ni4  1  0.25023200  0.24987500  0.74996700  1.0
  Ni  Ni5  1  0.74985900  0.75014300  0.25001600  1.0
  Ni  Ni6  1  0.24961400  0.25012000  0.24995600  1.0
  Ni  Ni7  1  0.75007800  0.75001700  0.75004300  1.0
