# generated using pymatgen
data_Ni
_symmetry_space_group_name_H-M   'P 1'
_cell_length_a   5.73173224
_cell_length_b   5.73933631
_cell_length_c   5.77813176
_cell_angle_alpha   119.41369136
_cell_angle_beta   119.35724774
_cell_angle_gamma   90.65160043
_symmetry_Int_Tables_number   1
_chemical_formula_structural   Ni
_chemical_formula_sum   Ni4
_cell_volume   136.12324793
_cell_formula_units_Z   4
loop_
 _symmetry_equiv_pos_site_id
 _symmetry_equiv_pos_as_xyz
  1  'x, y, z'
loop_
 _atom_site_type_symbol
 _atom_site_label
 _atom_site_symmetry_multiplicity
 _atom_site_fract_x
 _atom_site_fract_y
 _atom_site_fract_z
 _atom_site_occupancy
  Ni  Ni0  1  0.00000100  0.50000000  0.50000000  1.0
  Ni  Ni1  1  0.00000000  0.00000000  0.00000000  1.0
  Ni  Ni2  1  0.50000000  0.50000000  1.00000000  1.0
  Ni  Ni3  1  0.50000200  0.50000000  0.50000000  1.0
