# generated using pymatgen
data_Ni
_symmetry_space_group_name_H-M   'P 1'
_cell_length_a   4.99209700
_cell_length_b   5.81369342
_cell_length_c   6.50577986
_cell_angle_alpha   102.98357102
_cell_angle_beta   97.63716772
_cell_angle_gamma   105.76109450
_symmetry_Int_Tables_number   1
_chemical_formula_structural   Ni
_chemical_formula_sum   Ni5
_cell_volume   173.24233808
_cell_formula_units_Z   5
loop_
 _symmetry_equiv_pos_site_id
 _symmetry_equiv_pos_as_xyz
  1  'x, y, z'
loop_
 _atom_site_type_symbol
 _atom_site_label
 _atom_site_symmetry_multiplicity
 _atom_site_fract_x
 _atom_site_fract_y
 _atom_site_fract_z
 _atom_site_occupancy
  Ni  Ni0  1  0.40122800  0.30227300  0.79952700  1.0
  Ni  Ni1  1  0.59877200  0.69772700  0.20047300  1.0
  Ni  Ni2  1  0.80142500  0.10112800  0.59990100  1.0
  Ni  Ni3  1  0.00000000  0.50000000  0.00000000  1.0
  Ni  Ni4  1  0.19857500  0.89887200  0.40009900  1.0
