# generated using pymatgen
data_Ni
_symmetry_space_group_name_H-M   'P 1'
_cell_length_a   4.04125500
_cell_length_b   5.06000335
_cell_length_c   7.71092651
_cell_angle_alpha   76.52505652
_cell_angle_beta   74.80955943
_cell_angle_gamma   66.46509129
_symmetry_Int_Tables_number   1
_chemical_formula_structural   Ni
_chemical_formula_sum   Ni4
_cell_volume   138.03507374
_cell_formula_units_Z   4
loop_
 _symmetry_equiv_pos_site_id
 _symmetry_equiv_pos_as_xyz
  1  'x, y, z'
loop_
 _atom_site_type_symbol
 _atom_site_label
 _atom_site_symmetry_multiplicity
 _atom_site_fract_x
 _atom_site_fract_y
 _atom_site_fract_z
 _atom_site_occupancy
  Ni  Ni0  1  0.00010500  0.49913300  0.50090600  1.0
  Ni  Ni1  1  0.75011300  0.12560700  0.37423700  1.0
  Ni  Ni2  1  0.99679400  0.00604400  0.00028400  1.0
  Ni  Ni3  1  0.75312100  0.61901300  0.87467500  1.0
