# generated using pymatgen
data_Ni
_symmetry_space_group_name_H-M   'P 1'
_cell_length_a   4.03435300
_cell_length_b   4.14596353
_cell_length_c   5.02759284
_cell_angle_alpha   114.34113811
_cell_angle_beta   113.65076815
_cell_angle_gamma   90.00523342
_symmetry_Int_Tables_number   1
_chemical_formula_structural   Ni
_chemical_formula_sum   Ni2
_cell_volume   68.78969996
_cell_formula_units_Z   2
loop_
 _symmetry_equiv_pos_site_id
 _symmetry_equiv_pos_as_xyz
  1  'x, y, z'
loop_
 _atom_site_type_symbol
 _atom_site_label
 _atom_site_symmetry_multiplicity
 _atom_site_fract_x
 _atom_site_fract_y
 _atom_site_fract_z
 _atom_site_occupancy
  Ni  Ni0  1  0.00023800  0.99982100  0.00047600  1.0
  Ni  Ni1  1  0.24977950  0.75019300  0.49949750  1.0
