# generated using pymatgen
data_Ni
_symmetry_space_group_name_H-M   'P 1'
_cell_length_a   5.73613994
_cell_length_b   5.76353982
_cell_length_c   8.27492813
_cell_angle_alpha   90.17340069
_cell_angle_beta   89.99640570
_cell_angle_gamma   90.02340713
_symmetry_Int_Tables_number   1
_chemical_formula_structural   Ni
_chemical_formula_sum   Ni8
_cell_volume   273.57174492
_cell_formula_units_Z   8
loop_
 _symmetry_equiv_pos_site_id
 _symmetry_equiv_pos_as_xyz
  1  'x, y, z'
loop_
 _atom_site_type_symbol
 _atom_site_label
 _atom_site_symmetry_multiplicity
 _atom_site_fract_x
 _atom_site_fract_y
 _atom_site_fract_z
 _atom_site_occupancy
  Ni  Ni0  1  0.50073200  0.50001000  0.99999000  1.0
  Ni  Ni1  1  0.50092400  0.49989200  0.50002300  1.0
  Ni  Ni2  1  0.99946400  0.00009800  0.99994800  1.0
  Ni  Ni3  1  0.99886900  0.99995900  0.50003700  1.0
  Ni  Ni4  1  0.74998900  0.24984400  0.25034000  1.0
  Ni  Ni5  1  0.25036600  0.74961300  0.75029700  1.0
  Ni  Ni6  1  0.25039000  0.25045000  0.24972900  1.0
  Ni  Ni7  1  0.74996500  0.75018400  0.74967000  1.0
