# generated using pymatgen
data_Ni
_symmetry_space_group_name_H-M   'P 1'
_cell_length_a   4.05083814
_cell_length_b   4.05085114
_cell_length_c   5.10468005
_cell_angle_alpha   113.36298785
_cell_angle_beta   113.36517477
_cell_angle_gamma   90.02964616
_symmetry_Int_Tables_number   1
_chemical_formula_structural   Ni
_chemical_formula_sum   Ni2
_cell_volume   69.34246636
_cell_formula_units_Z   2
loop_
 _symmetry_equiv_pos_site_id
 _symmetry_equiv_pos_as_xyz
  1  'x, y, z'
loop_
 _atom_site_type_symbol
 _atom_site_label
 _atom_site_symmetry_multiplicity
 _atom_site_fract_x
 _atom_site_fract_y
 _atom_site_fract_z
 _atom_site_occupancy
  Ni  Ni0  1  0.00000700  0.00000700  0.00000600  1.0
  Ni  Ni1  1  0.24999400  0.74999300  0.49999400  1.0
