# generated using pymatgen
data_Ni
_symmetry_space_group_name_H-M   'P 1'
_cell_length_a   5.68390820
_cell_length_b   5.79574352
_cell_length_c   5.81417894
_cell_angle_alpha   119.87173626
_cell_angle_beta   119.26150165
_cell_angle_gamma   90.00000436
_symmetry_Int_Tables_number   1
_chemical_formula_structural   Ni
_chemical_formula_sum   Ni4
_cell_volume   137.18585186
_cell_formula_units_Z   4
loop_
 _symmetry_equiv_pos_site_id
 _symmetry_equiv_pos_as_xyz
  1  'x, y, z'
loop_
 _atom_site_type_symbol
 _atom_site_label
 _atom_site_symmetry_multiplicity
 _atom_site_fract_x
 _atom_site_fract_y
 _atom_site_fract_z
 _atom_site_occupancy
  Ni  Ni0  1  1.00000000  0.00000200  0.00000300  1.0
  Ni  Ni1  1  0.50000400  0.49999900  0.49999900  1.0
  Ni  Ni2  1  0.99999600  0.50000000  0.50000000  1.0
  Ni  Ni3  1  0.49999800  0.49999500  0.99999400  1.0
