# generated using pymatgen
data_Ni
_symmetry_space_group_name_H-M   'P 1'
_cell_length_a   5.79488582
_cell_length_b   5.80170725
_cell_length_c   8.13533612
_cell_angle_alpha   89.62395763
_cell_angle_beta   89.69796465
_cell_angle_gamma   90.72061512
_symmetry_Int_Tables_number   1
_chemical_formula_structural   Ni
_chemical_formula_sum   Ni8
_cell_volume   273.48043703
_cell_formula_units_Z   8
loop_
 _symmetry_equiv_pos_site_id
 _symmetry_equiv_pos_as_xyz
  1  'x, y, z'
loop_
 _atom_site_type_symbol
 _atom_site_label
 _atom_site_symmetry_multiplicity
 _atom_site_fract_x
 _atom_site_fract_y
 _atom_site_fract_z
 _atom_site_occupancy
  Ni  Ni0  1  0.49850000  0.50213900  0.00061700  1.0
  Ni  Ni1  1  0.00172800  0.99910400  0.00002800  1.0
  Ni  Ni2  1  0.49842600  0.50143700  0.50073000  1.0
  Ni  Ni3  1  0.00141200  0.99835900  0.50092100  1.0
  Ni  Ni4  1  0.25372000  0.75278000  0.25141700  1.0
  Ni  Ni5  1  0.74560000  0.24609900  0.74901400  1.0
  Ni  Ni6  1  0.00092300  0.50079100  0.50104600  1.0
  Ni  Ni7  1  0.50000100  0.00025300  0.99697800  1.0
