# generated using pymatgen
data_Ni
_symmetry_space_group_name_H-M   'P 1'
_cell_length_a   4.97967275
_cell_length_b   5.03553301
_cell_length_c   5.05887133
_cell_angle_alpha   81.05319086
_cell_angle_beta   71.68100763
_cell_angle_gamma   60.37676636
_symmetry_Int_Tables_number   1
_chemical_formula_structural   Ni
_chemical_formula_sum   Ni3
_cell_volume   104.68394589
_cell_formula_units_Z   3
loop_
 _symmetry_equiv_pos_site_id
 _symmetry_equiv_pos_as_xyz
  1  'x, y, z'
loop_
 _atom_site_type_symbol
 _atom_site_label
 _atom_site_symmetry_multiplicity
 _atom_site_fract_x
 _atom_site_fract_y
 _atom_site_fract_z
 _atom_site_occupancy
  Ni  Ni0  1  0.83419500  0.33233100  0.50045800  1.0
  Ni  Ni1  1  0.16601000  0.66756800  0.49995500  1.0
  Ni  Ni2  1  0.49973200  0.00015900  0.49996700  1.0
