# generated using pymatgen
data_Ni
_symmetry_space_group_name_H-M   'P 1'
_cell_length_a   2.84223200
_cell_length_b   5.22675718
_cell_length_c   10.19731021
_cell_angle_alpha   99.08577270
_cell_angle_beta   98.01092086
_cell_angle_gamma   90.00000000
_symmetry_Int_Tables_number   1
_chemical_formula_structural   Ni
_chemical_formula_sum   Ni4
_cell_volume   148.08976672
_cell_formula_units_Z   4
loop_
 _symmetry_equiv_pos_site_id
 _symmetry_equiv_pos_as_xyz
  1  'x, y, z'
loop_
 _atom_site_type_symbol
 _atom_site_label
 _atom_site_symmetry_multiplicity
 _atom_site_fract_x
 _atom_site_fract_y
 _atom_site_fract_z
 _atom_site_occupancy
  Ni  Ni0  1  0.25235100  0.24917200  0.50470200  1.0
  Ni  Ni1  1  0.00000000  0.00000000  0.00000000  1.0
  Ni  Ni2  1  0.50000000  0.50000000  0.00000000  1.0
  Ni  Ni3  1  0.74764900  0.75082800  0.49529800  1.0
