# generated using pymatgen
data_Mn
_symmetry_space_group_name_H-M   'P 1'
_cell_length_a   8.66131600
_cell_length_b   13.12715453
_cell_length_c   13.17380371
_cell_angle_alpha   83.77407877
_cell_angle_beta   70.80813594
_cell_angle_gamma   70.73724904
_symmetry_Int_Tables_number   1
_chemical_formula_structural   Mn
_chemical_formula_sum   Mn36
_cell_volume   1335.40019334
_cell_formula_units_Z   36
loop_
 _symmetry_equiv_pos_site_id
 _symmetry_equiv_pos_as_xyz
  1  'x, y, z'
loop_
 _atom_site_type_symbol
 _atom_site_label
 _atom_site_symmetry_multiplicity
 _atom_site_fract_x
 _atom_site_fract_y
 _atom_site_fract_z
 _atom_site_occupancy
  Mn  Mn0  1  0.53573800  0.41662400  0.25472600  1.0
  Mn  Mn1  1  0.87503300  0.58168800  0.91480500  1.0
  Mn  Mn2  1  0.20672100  0.91831200  0.41480500  1.0
  Mn  Mn3  1  0.21333300  0.24710500  0.58487500  1.0
  Mn  Mn4  1  0.20708900  0.58337500  0.74527300  1.0
  Mn  Mn5  1  0.20179100  0.75289600  0.58487500  1.0
  Mn  Mn6  1  0.37847400  0.08168800  0.41480500  1.0
  Mn  Mn7  1  0.21426200  0.08337600  0.24527400  1.0
  Mn  Mn8  1  0.87706000  0.58404800  0.41951100  1.0
  Mn  Mn9  1  0.21016200  0.41831200  0.91480500  1.0
  Mn  Mn10  1  0.87496700  0.91831200  0.58519500  1.0
  Mn  Mn11  1  0.54291100  0.91662500  0.75472700  1.0
  Mn  Mn12  1  0.20953700  0.58337500  0.25472600  1.0
  Mn  Mn13  1  0.53666700  0.25289500  0.91512500  1.0
  Mn  Mn14  1  0.88062000  0.41595100  0.58048800  1.0
  Mn  Mn15  1  0.04763900  0.41662400  0.74527300  1.0
  Mn  Mn16  1  0.54046300  0.91662500  0.24527400  1.0
  Mn  Mn17  1  0.87500000  0.25000000  0.25000000  1.0
  Mn  Mn18  1  0.53956100  0.24710500  0.41512600  1.0
  Mn  Mn19  1  0.04657000  0.08404900  0.08048900  1.0
  Mn  Mn20  1  0.53889300  0.58404800  0.58048800  1.0
  Mn  Mn21  1  0.70343000  0.41595100  0.41951100  1.0
  Mn  Mn22  1  0.87294000  0.91595200  0.08048900  1.0
  Mn  Mn23  1  0.87500000  0.25000000  0.75000000  1.0
  Mn  Mn24  1  0.21110700  0.91595200  0.91951200  1.0
  Mn  Mn25  1  0.37500000  0.75000000  0.75000000  1.0
  Mn  Mn26  1  0.87500000  0.75000000  0.25000000  1.0
  Mn  Mn27  1  0.86938000  0.08404900  0.91951200  1.0
  Mn  Mn28  1  0.21043900  0.25289500  0.08487400  1.0
  Mn  Mn29  1  0.70468800  0.74710400  0.08487400  1.0
  Mn  Mn30  1  0.53983800  0.08168800  0.58519500  1.0
  Mn  Mn31  1  0.70236100  0.08337600  0.75472700  1.0
  Mn  Mn32  1  0.04531200  0.75289600  0.41512600  1.0
  Mn  Mn33  1  0.54327900  0.58168800  0.08519500  1.0
  Mn  Mn34  1  0.37152600  0.41831200  0.08519500  1.0
  Mn  Mn35  1  0.54820900  0.74710400  0.91512500  1.0
