# generated using pymatgen
data_Mn
_symmetry_space_group_name_H-M   'P 1'
_cell_length_a   8.70631317
_cell_length_b   13.10418449
_cell_length_c   13.20090474
_cell_angle_alpha   83.67152174
_cell_angle_beta   70.76451289
_cell_angle_gamma   70.60259348
_symmetry_Int_Tables_number   1
_chemical_formula_structural   Mn
_chemical_formula_sum   Mn36
_cell_volume   1341.28261147
_cell_formula_units_Z   36
loop_
 _symmetry_equiv_pos_site_id
 _symmetry_equiv_pos_as_xyz
  1  'x, y, z'
loop_
 _atom_site_type_symbol
 _atom_site_label
 _atom_site_symmetry_multiplicity
 _atom_site_fract_x
 _atom_site_fract_y
 _atom_site_fract_z
 _atom_site_occupancy
  Mn  Mn0  1  0.67409859  0.66562257  0.49718954  1.0
  Mn  Mn1  1  0.16966537  0.83132526  0.83486846  1.0
  Mn  Mn2  1  0.49824027  0.16929484  0.33352543  1.0
  Mn  Mn3  1  0.16326918  0.49780318  0.16453668  1.0
  Mn  Mn4  1  0.83395328  0.83373904  0.00318606  1.0
  Mn  Mn5  1  0.66633447  0.00269318  0.16625347  1.0
  Mn  Mn6  1  0.16093832  0.33117152  0.33596305  1.0
  Mn  Mn7  1  0.32713141  0.33333333  0.50468074  1.0
  Mn  Mn8  1  0.16387059  0.83426508  0.33087355  1.0
  Mn  Mn9  1  0.99671653  0.66911424  0.83403172  1.0
  Mn  Mn10  1  0.83251911  0.16879089  0.16571784  1.0
  Mn  Mn11  1  0.16276939  0.16594641  0.99554493  1.0
  Mn  Mn12  1  0.82779918  0.83514522  0.49682508  1.0
  Mn  Mn13  1  0.83527728  0.50197703  0.83395535  1.0
  Mn  Mn14  1  0.32688365  0.66787125  0.16830585  1.0
  Mn  Mn15  1  0.15879828  0.66596299  0.00406499  1.0
  Mn  Mn16  1  0.17025654  0.16569435  0.50522296  1.0
  Mn  Mn17  1  0.50211996  0.50017269  0.49960786  1.0
  Mn  Mn18  1  0.83900403  0.49776748  0.33578376  1.0
  Mn  Mn19  1  0.49197552  0.33376376  0.66945564  1.0
  Mn  Mn20  1  0.50548261  0.83338776  0.16912396  1.0
  Mn  Mn21  1  0.50849183  0.66810287  0.33070479  1.0
  Mn  Mn22  1  0.83540374  0.16786328  0.66838325  1.0
  Mn  Mn23  1  0.49916690  0.49942229  0.00056765  1.0
  Mn  Mn24  1  0.49144402  0.16890728  0.83059396  1.0
  Mn  Mn25  1  0.49787361  0.00047921  0.99879696  1.0
  Mn  Mn26  1  0.99956631  0.99972130  0.50073413  1.0
  Mn  Mn27  1  0.66888636  0.33425474  0.83115345  1.0
  Mn  Mn28  1  0.16411415  0.50250906  0.66715691  1.0
  Mn  Mn29  1  0.17161719  0.99768908  0.66557496  1.0
  Mn  Mn30  1  0.00617584  0.33114098  0.16471372  1.0
  Mn  Mn31  1  0.84132723  0.33451068  0.99477976  1.0
  Mn  Mn32  1  0.82668880  0.00218030  0.33438273  1.0
  Mn  Mn33  1  0.49808428  0.83072387  0.66634842  1.0
  Mn  Mn34  1  0.83323430  0.66885971  0.66603141  1.0
  Mn  Mn35  1  0.32857053  0.99774108  0.83466274  1.0
