# generated using pymatgen
data_Mn
_symmetry_space_group_name_H-M   'P 1'
_cell_length_a   8.38554304
_cell_length_b   13.32410980
_cell_length_c   13.35239711
_cell_angle_alpha   84.32929781
_cell_angle_beta   71.69900767
_cell_angle_gamma   71.65877210
_symmetry_Int_Tables_number   1
_chemical_formula_structural   Mn
_chemical_formula_sum   Mn36
_cell_volume   1344.44932156
_cell_formula_units_Z   36
loop_
 _symmetry_equiv_pos_site_id
 _symmetry_equiv_pos_as_xyz
  1  'x, y, z'
loop_
 _atom_site_type_symbol
 _atom_site_label
 _atom_site_symmetry_multiplicity
 _atom_site_fract_x
 _atom_site_fract_y
 _atom_site_fract_z
 _atom_site_occupancy
  Mn  Mn0  1  0.50000000  0.00000000  1.00000000  1.0
  Mn  Mn1  1  1.00000000  0.00000000  0.50000000  1.0
  Mn  Mn2  1  0.50000000  0.50000000  1.00000000  1.0
  Mn  Mn3  1  0.50000000  0.50000000  0.50000000  1.0
  Mn  Mn4  1  0.49690877  0.33760297  0.66955541  1.0
  Mn  Mn5  1  0.66548826  0.33760297  0.83044459  1.0
  Mn  Mn6  1  0.83353582  0.16239703  0.66955541  1.0
  Mn  Mn7  1  0.50406715  0.16239703  0.83044459  1.0
  Mn  Mn8  1  0.50309123  0.66239703  0.33044459  1.0
  Mn  Mn9  1  0.33451174  0.66239703  0.16955541  1.0
  Mn  Mn10  1  0.16646418  0.83760297  0.33044459  1.0
  Mn  Mn11  1  0.49593285  0.83760297  0.16955541  1.0
  Mn  Mn12  1  0.00311306  0.33289605  0.16094254  1.0
  Mn  Mn13  1  0.16399089  0.33289605  0.33905746  1.0
  Mn  Mn14  1  0.83594440  0.16710395  0.16094254  1.0
  Mn  Mn15  1  0.49695165  0.16710395  0.33905746  1.0
  Mn  Mn16  1  0.99688694  0.66710395  0.83905746  1.0
  Mn  Mn17  1  0.83600911  0.66710395  0.66094254  1.0
  Mn  Mn18  1  0.16405560  0.83289605  0.83905746  1.0
  Mn  Mn19  1  0.50304835  0.83289605  0.66094254  1.0
  Mn  Mn20  1  0.32979001  0.99520068  0.83588542  1.0
  Mn  Mn21  1  0.17500931  0.99520068  0.66411458  1.0
  Mn  Mn22  1  0.83432457  0.50479932  0.83588542  1.0
  Mn  Mn23  1  0.16087611  0.50479932  0.66411458  1.0
  Mn  Mn24  1  0.67020999  0.00479932  0.16411458  1.0
  Mn  Mn25  1  0.82499069  0.00479932  0.33588542  1.0
  Mn  Mn26  1  0.16567543  0.49520068  0.16411458  1.0
  Mn  Mn27  1  0.83912389  0.49520068  0.33588542  1.0
  Mn  Mn28  1  0.16599868  0.16613723  0.99051074  1.0
  Mn  Mn29  1  0.16786408  0.16613723  0.50948926  1.0
  Mn  Mn30  1  0.84349058  0.33386277  0.99051074  1.0
  Mn  Mn31  1  0.32264665  0.33386277  0.50948926  1.0
  Mn  Mn32  1  0.83400132  0.83386277  0.00948926  1.0
  Mn  Mn33  1  0.83213592  0.83386277  0.49051074  1.0
  Mn  Mn34  1  0.15650942  0.66613723  0.00948926  1.0
  Mn  Mn35  1  0.67735335  0.66613723  0.49051074  1.0
