# generated using pymatgen
data_Mn
_symmetry_space_group_name_H-M   'P 1'
_cell_length_a   5.86604000
_cell_length_b   5.86603943
_cell_length_c   9.76392000
_cell_angle_alpha   90.00000000
_cell_angle_beta   90.00000000
_cell_angle_gamma   120.00000322
_symmetry_Int_Tables_number   1
_chemical_formula_structural   Mn
_chemical_formula_sum   Mn8
_cell_volume   290.96773142
_cell_formula_units_Z   8
loop_
 _symmetry_equiv_pos_site_id
 _symmetry_equiv_pos_as_xyz
  1  'x, y, z'
loop_
 _atom_site_type_symbol
 _atom_site_label
 _atom_site_symmetry_multiplicity
 _atom_site_fract_x
 _atom_site_fract_y
 _atom_site_fract_z
 _atom_site_occupancy
  Mn  Mn0  1  0.83113900  0.66227800  0.78469200  1.0
  Mn  Mn1  1  0.66666667  0.33333333  0.50685000  1.0
  Mn  Mn2  1  0.83113900  0.16886100  0.78469200  1.0
  Mn  Mn3  1  0.33772200  0.16886100  0.78469200  1.0
  Mn  Mn4  1  0.66227800  0.83113900  0.28469200  1.0
  Mn  Mn5  1  0.33333333  0.66666667  0.00685000  1.0
  Mn  Mn6  1  0.16886100  0.83113900  0.28469200  1.0
  Mn  Mn7  1  0.16886100  0.33772200  0.28469200  1.0
