# generated using pymatgen
data_Mn
_symmetry_space_group_name_H-M   'P 1'
_cell_length_a   5.81217252
_cell_length_b   5.81217252
_cell_length_c   14.24257461
_cell_angle_alpha   87.82151430
_cell_angle_beta   87.82151430
_cell_angle_gamma   60.17343167
_symmetry_Int_Tables_number   1
_chemical_formula_structural   Mn
_chemical_formula_sum   Mn12
_cell_volume   416.99702959
_cell_formula_units_Z   12
loop_
 _symmetry_equiv_pos_site_id
 _symmetry_equiv_pos_as_xyz
  1  'x, y, z'
loop_
 _atom_site_type_symbol
 _atom_site_label
 _atom_site_symmetry_multiplicity
 _atom_site_fract_x
 _atom_site_fract_y
 _atom_site_fract_z
 _atom_site_occupancy
  Mn  Mn0  1  0.48633100  0.23916400  0.50885800  1.0
  Mn  Mn1  1  0.99991100  0.75363800  0.49555200  1.0
  Mn  Mn2  1  0.77678600  0.52941900  0.84192900  1.0
  Mn  Mn3  1  0.27997000  0.02662300  0.84017500  1.0
  Mn  Mn4  1  0.72694900  0.47608400  0.15442700  1.0
  Mn  Mn5  1  0.22725000  0.97632600  0.15511300  1.0
  Mn  Mn6  1  0.23916400  0.48633100  0.00885800  1.0
  Mn  Mn7  1  0.75363800  0.99991100  0.99555200  1.0
  Mn  Mn8  1  0.02662300  0.27997000  0.34017500  1.0
  Mn  Mn9  1  0.52941900  0.77678600  0.34192900  1.0
  Mn  Mn10  1  0.97632600  0.22725000  0.65511300  1.0
  Mn  Mn11  1  0.47608400  0.72694900  0.65442700  1.0
