# generated using pymatgen
data_MnPd2
_symmetry_space_group_name_H-M   'P 1'
_cell_length_a   9.60486600
_cell_length_b   10.12003955
_cell_length_c   10.12003955
_cell_angle_alpha   61.07440513
_cell_angle_beta   61.67014971
_cell_angle_gamma   61.67014971
_symmetry_Int_Tables_number   1
_chemical_formula_structural   MnPd2
_chemical_formula_sum   'Mn1 Pd2'
_cell_volume   718.50173041
_cell_formula_units_Z   1
loop_
 _symmetry_equiv_pos_site_id
 _symmetry_equiv_pos_as_xyz
  1  'x, y, z'
loop_
 _atom_site_type_symbol
 _atom_site_label
 _atom_site_symmetry_multiplicity
 _atom_site_fract_x
 _atom_site_fract_y
 _atom_site_fract_z
 _atom_site_occupancy
  Mn  Mn0  1  0.00000000  0.00000000  0.00000000  1.0
  Pd  Pd1  1  0.74702500  0.00000000  0.00000000  1.0
  Pd  Pd2  1  0.25297500  0.00000000  0.00000000  1.0
