# generated using pymatgen
data_Fe
_symmetry_space_group_name_H-M   'P 1'
_cell_length_a   3.01940800
_cell_length_b   5.17954950
_cell_length_c   15.91706500
_cell_angle_alpha   90.00000000
_cell_angle_beta   90.00000000
_cell_angle_gamma   106.94622273
_symmetry_Int_Tables_number   1
_chemical_formula_structural   Fe
_chemical_formula_sum   Fe8
_cell_volume   238.12089632
_cell_formula_units_Z   8
loop_
 _symmetry_equiv_pos_site_id
 _symmetry_equiv_pos_as_xyz
  1  'x, y, z'
loop_
 _atom_site_type_symbol
 _atom_site_label
 _atom_site_symmetry_multiplicity
 _atom_site_fract_x
 _atom_site_fract_y
 _atom_site_fract_z
 _atom_site_occupancy
  Fe  Fe0  1  0.36530300  0.73060600  0.95260600  1.0
  Fe  Fe1  1  0.63469700  0.26939400  0.04739400  1.0
  Fe  Fe2  1  0.36530300  0.73060600  0.54739400  1.0
  Fe  Fe3  1  0.63469700  0.26939400  0.45260600  1.0
  Fe  Fe4  1  0.90379300  0.80758600  0.35270100  1.0
  Fe  Fe5  1  0.09620700  0.19241400  0.64729900  1.0
  Fe  Fe6  1  0.09620700  0.19241400  0.85270100  1.0
  Fe  Fe7  1  0.90379300  0.80758600  0.14729900  1.0
