# generated using pymatgen
data_Fe
_symmetry_space_group_name_H-M   'P 1'
_cell_length_a   5.10484700
_cell_length_b   5.10485749
_cell_length_c   5.49503576
_cell_angle_alpha   90.00180823
_cell_angle_beta   117.67728041
_cell_angle_gamma   119.99810919
_symmetry_Int_Tables_number   1
_chemical_formula_structural   Fe
_chemical_formula_sum   Fe4
_cell_volume   104.66803238
_cell_formula_units_Z   4
loop_
 _symmetry_equiv_pos_site_id
 _symmetry_equiv_pos_as_xyz
  1  'x, y, z'
loop_
 _atom_site_type_symbol
 _atom_site_label
 _atom_site_symmetry_multiplicity
 _atom_site_fract_x
 _atom_site_fract_y
 _atom_site_fract_z
 _atom_site_occupancy
  Fe  Fe0  1  0.70835100  0.35417300  0.06252600  1.0
  Fe  Fe1  1  0.29164900  0.64582600  0.93747400  1.0
  Fe  Fe2  1  0.29165400  0.14582900  0.43748400  1.0
  Fe  Fe3  1  0.70834600  0.85417100  0.56251600  1.0
