# generated using pymatgen
data_Fe
_symmetry_space_group_name_H-M   'P 1'
_cell_length_a   10.23295016
_cell_length_b   10.26627247
_cell_length_c   10.38777552
_cell_angle_alpha   86.87435598
_cell_angle_beta   89.55445034
_cell_angle_gamma   87.33796759
_symmetry_Int_Tables_number   1
_chemical_formula_structural   Fe
_chemical_formula_sum   Fe32
_cell_volume   1088.46566592
_cell_formula_units_Z   32
loop_
 _symmetry_equiv_pos_site_id
 _symmetry_equiv_pos_as_xyz
  1  'x, y, z'
loop_
 _atom_site_type_symbol
 _atom_site_label
 _atom_site_symmetry_multiplicity
 _atom_site_fract_x
 _atom_site_fract_y
 _atom_site_fract_z
 _atom_site_occupancy
  Fe  Fe0  1  0.75109120  0.53673396  0.91717195  1.0
  Fe  Fe1  1  0.06258870  0.42375112  0.42793357  1.0
  Fe  Fe2  1  0.77189245  0.79391169  0.20151619  1.0
  Fe  Fe3  1  0.06701929  0.90413274  0.56554148  1.0
  Fe  Fe4  1  0.23150732  0.36476377  0.80770799  1.0
  Fe  Fe5  1  0.38708821  0.45567145  0.54591328  1.0
  Fe  Fe6  1  0.05788896  0.47355798  0.06298341  1.0
  Fe  Fe7  1  0.51077262  0.63898330  0.02906536  1.0
  Fe  Fe8  1  0.54790508  0.15438874  0.46147250  1.0
  Fe  Fe9  1  0.52622235  0.38510048  0.18446789  1.0
  Fe  Fe10  1  0.00286587  0.90531259  0.87973158  1.0
  Fe  Fe11  1  0.06784250  0.11838463  0.34899157  1.0
  Fe  Fe12  1  0.26509806  0.63794890  0.26725462  1.0
  Fe  Fe13  1  0.24291727  0.16739404  0.57918097  1.0
  Fe  Fe14  1  0.54231788  0.34698262  0.84922997  1.0
  Fe  Fe15  1  0.85244596  0.34484509  0.15154260  1.0
  Fe  Fe16  1  0.21581318  0.99286191  0.14957526  1.0
  Fe  Fe17  1  0.54652984  0.65405924  0.32347549  1.0
  Fe  Fe18  1  0.71720721  0.41225650  0.42713021  1.0
  Fe  Fe19  1  0.31999371  0.09202204  0.89991980  1.0
  Fe  Fe20  1  0.80748748  0.77177148  0.74465557  1.0
  Fe  Fe21  1  0.58829438  0.99634488  0.75943129  1.0
  Fe  Fe22  1  0.78730785  0.17439225  0.86407512  1.0
  Fe  Fe23  1  0.10515719  0.63631155  0.68181615  1.0
  Fe  Fe24  1  0.21418917  0.75263382  0.99162944  1.0
  Fe  Fe25  1  0.87071136  0.02611025  0.13441261  1.0
  Fe  Fe26  1  0.47313900  0.65407850  0.75379258  1.0
  Fe  Fe27  1  0.36837206  0.85639906  0.50834426  1.0
  Fe  Fe28  1  0.82864149  0.09808681  0.58994203  1.0
  Fe  Fe29  1  0.92913800  0.40247721  0.75095264  1.0
  Fe  Fe30  1  0.51503396  0.03971134  0.21925240  1.0
  Fe  Fe31  1  0.87038801  0.68616806  0.43729304  1.0
