# generated using pymatgen
data_Fe
_symmetry_space_group_name_H-M   'P 1'
_cell_length_a   5.17271100
_cell_length_b   5.32473500
_cell_length_c   7.52444100
_cell_angle_alpha   90.00000000
_cell_angle_beta   90.00000000
_cell_angle_gamma   90.00000000
_symmetry_Int_Tables_number   1
_chemical_formula_structural   Fe
_chemical_formula_sum   Fe8
_cell_volume   207.24805097
_cell_formula_units_Z   8
loop_
 _symmetry_equiv_pos_site_id
 _symmetry_equiv_pos_as_xyz
  1  'x, y, z'
loop_
 _atom_site_type_symbol
 _atom_site_label
 _atom_site_symmetry_multiplicity
 _atom_site_fract_x
 _atom_site_fract_y
 _atom_site_fract_z
 _atom_site_occupancy
  Fe  Fe0  1  0.24834500  0.53137200  0.11203000  1.0
  Fe  Fe1  1  0.25165500  0.03137200  0.38797000  1.0
  Fe  Fe2  1  0.25165500  0.46862800  0.61203000  1.0
  Fe  Fe3  1  0.24834500  0.96862800  0.88797000  1.0
  Fe  Fe4  1  0.75165500  0.46862800  0.88797000  1.0
  Fe  Fe5  1  0.74834500  0.96862800  0.61203000  1.0
  Fe  Fe6  1  0.74834500  0.53137200  0.38797000  1.0
  Fe  Fe7  1  0.75165500  0.03137200  0.11203000  1.0
