# generated using pymatgen
data_Fe
_symmetry_space_group_name_H-M   'P 1'
_cell_length_a   10.03799686
_cell_length_b   10.32960213
_cell_length_c   10.33518513
_cell_angle_alpha   84.45694590
_cell_angle_beta   85.59534254
_cell_angle_gamma   83.42412812
_symmetry_Int_Tables_number   1
_chemical_formula_structural   Fe
_chemical_formula_sum   Fe32
_cell_volume   1057.26718128
_cell_formula_units_Z   32
loop_
 _symmetry_equiv_pos_site_id
 _symmetry_equiv_pos_as_xyz
  1  'x, y, z'
loop_
 _atom_site_type_symbol
 _atom_site_label
 _atom_site_symmetry_multiplicity
 _atom_site_fract_x
 _atom_site_fract_y
 _atom_site_fract_z
 _atom_site_occupancy
  Fe  Fe0  1  0.95016745  0.33879730  0.59738930  1.0
  Fe  Fe1  1  0.86469348  0.51951958  0.36661570  1.0
  Fe  Fe2  1  0.84558246  0.53678988  0.82623596  1.0
  Fe  Fe3  1  0.44762009  0.88672652  0.11684784  1.0
  Fe  Fe4  1  0.21389451  0.49777471  0.40763888  1.0
  Fe  Fe5  1  0.50281879  0.43376515  0.55083635  1.0
  Fe  Fe6  1  0.80509103  0.53387758  0.08519210  1.0
  Fe  Fe7  1  0.98497368  0.69272032  0.57024123  1.0
  Fe  Fe8  1  0.46762318  0.10438477  0.59488620  1.0
  Fe  Fe9  1  0.73100030  0.16382047  0.65891433  1.0
  Fe  Fe10  1  0.30506898  0.89630914  0.73767979  1.0
  Fe  Fe11  1  0.74492616  0.29709828  0.36543931  1.0
  Fe  Fe12  1  0.72037881  0.77281489  0.33893992  1.0
  Fe  Fe13  1  0.42192736  0.24572029  0.29110433  1.0
  Fe  Fe14  1  0.16022238  0.07509302  0.14797679  1.0
  Fe  Fe15  1  0.68355900  0.03904045  0.92006437  1.0
  Fe  Fe16  1  0.71008116  0.05670005  0.23045427  1.0
  Fe  Fe17  1  0.68828543  0.80757815  0.62019335  1.0
  Fe  Fe18  1  0.64784652  0.36888968  0.85846963  1.0
  Fe  Fe19  1  0.89504997  0.23975557  0.09479654  1.0
  Fe  Fe20  1  0.35200130  0.57813826  0.78292934  1.0
  Fe  Fe21  1  0.17940403  0.85193307  0.42973563  1.0
  Fe  Fe22  1  0.16068205  0.42309018  0.72800503  1.0
  Fe  Fe23  1  0.29627827  0.62661032  0.14538326  1.0
  Fe  Fe24  1  0.09345678  0.69572337  0.93157648  1.0
  Fe  Fe25  1  0.98447078  0.97912636  0.88849870  1.0
  Fe  Fe26  1  0.95480510  0.83326421  0.14458506  1.0
  Fe  Fe27  1  0.44418836  0.90958052  0.40195625  1.0
  Fe  Fe28  1  0.37385501  0.17159518  0.91156919  1.0
  Fe  Fe29  1  0.21708268  0.38258813  0.06094798  1.0
  Fe  Fe30  1  0.93950790  0.03021144  0.41590277  1.0
  Fe  Fe31  1  0.57676275  0.72066686  0.90437848  1.0
