# generated using pymatgen
data_Fe
_symmetry_space_group_name_H-M   'P 1'
_cell_length_a   5.43536400
_cell_length_b   5.43536460
_cell_length_c   15.04000100
_cell_angle_alpha   90.00000000
_cell_angle_beta   90.00000000
_cell_angle_gamma   119.99999633
_symmetry_Int_Tables_number   1
_chemical_formula_structural   Fe
_chemical_formula_sum   Fe12
_cell_volume   384.80067725
_cell_formula_units_Z   12
loop_
 _symmetry_equiv_pos_site_id
 _symmetry_equiv_pos_as_xyz
  1  'x, y, z'
loop_
 _atom_site_type_symbol
 _atom_site_label
 _atom_site_symmetry_multiplicity
 _atom_site_fract_x
 _atom_site_fract_y
 _atom_site_fract_z
 _atom_site_occupancy
  Fe  Fe0  1  0.00768200  0.70175100  0.22824600  1.0
  Fe  Fe1  1  0.69406900  0.99231800  0.22824600  1.0
  Fe  Fe2  1  0.29824900  0.30593100  0.22824600  1.0
  Fe  Fe3  1  0.64452700  0.68677900  0.73047600  1.0
  Fe  Fe4  1  0.04225200  0.35547300  0.73047600  1.0
  Fe  Fe5  1  0.31322100  0.95774800  0.73047600  1.0
  Fe  Fe6  1  0.66666667  0.33333333  0.91018400  1.0
  Fe  Fe7  1  0.66666667  0.33333333  0.08102900  1.0
  Fe  Fe8  1  0.66666667  0.33333333  0.57305100  1.0
  Fe  Fe9  1  0.00000000  0.00000000  0.93061100  1.0
  Fe  Fe10  1  0.33333333  0.66666667  0.04160400  1.0
  Fe  Fe11  1  0.66666667  0.33333333  0.40162500  1.0
