# generated using pymatgen
data_Fe
_symmetry_space_group_name_H-M   'P 1'
_cell_length_a   5.14466510
_cell_length_b   5.28838435
_cell_length_c   7.51141745
_cell_angle_alpha   90.30311981
_cell_angle_beta   90.16386298
_cell_angle_gamma   89.87615236
_symmetry_Int_Tables_number   1
_chemical_formula_structural   Fe
_chemical_formula_sum   Fe8
_cell_volume   204.35871573
_cell_formula_units_Z   8
loop_
 _symmetry_equiv_pos_site_id
 _symmetry_equiv_pos_as_xyz
  1  'x, y, z'
loop_
 _atom_site_type_symbol
 _atom_site_label
 _atom_site_symmetry_multiplicity
 _atom_site_fract_x
 _atom_site_fract_y
 _atom_site_fract_z
 _atom_site_occupancy
  Fe  Fe0  1  0.74990400  0.97097900  0.11192100  1.0
  Fe  Fe1  1  0.74884600  0.53076200  0.88542900  1.0
  Fe  Fe2  1  0.24549800  0.03074300  0.88642900  1.0
  Fe  Fe3  1  0.74466800  0.02938700  0.61187200  1.0
  Fe  Fe4  1  0.24878000  0.53037800  0.61103000  1.0
  Fe  Fe5  1  0.25072700  0.96772600  0.38385000  1.0
  Fe  Fe6  1  0.24652900  0.47168300  0.10907800  1.0
  Fe  Fe7  1  0.74549600  0.46741100  0.38502800  1.0
