# generated using pymatgen
data_Fe
_symmetry_space_group_name_H-M   'P 1'
_cell_length_a   5.16483500
_cell_length_b   5.40720000
_cell_length_c   15.05091200
_cell_angle_alpha   90.00000000
_cell_angle_beta   90.00000000
_cell_angle_gamma   90.00000000
_symmetry_Int_Tables_number   1
_chemical_formula_structural   Fe
_chemical_formula_sum   Fe16
_cell_volume   420.33127166
_cell_formula_units_Z   16
loop_
 _symmetry_equiv_pos_site_id
 _symmetry_equiv_pos_as_xyz
  1  'x, y, z'
loop_
 _atom_site_type_symbol
 _atom_site_label
 _atom_site_symmetry_multiplicity
 _atom_site_fract_x
 _atom_site_fract_y
 _atom_site_fract_z
 _atom_site_occupancy
  Fe  Fe0  1  0.99871500  0.20084400  0.07142600  1.0
  Fe  Fe1  1  0.99880500  0.76658300  0.18062800  1.0
  Fe  Fe2  1  0.99871500  0.29915600  0.57142600  1.0
  Fe  Fe3  1  0.99880500  0.73341700  0.68062800  1.0
  Fe  Fe4  1  0.50119500  0.26658300  0.18062800  1.0
  Fe  Fe5  1  0.50119500  0.23341700  0.68062800  1.0
  Fe  Fe6  1  0.50128500  0.70084400  0.07142600  1.0
  Fe  Fe7  1  0.50128500  0.79915600  0.57142600  1.0
  Fe  Fe8  1  0.49871500  0.20084400  0.42857400  1.0
  Fe  Fe9  1  0.49871500  0.29915600  0.92857400  1.0
  Fe  Fe10  1  0.49880500  0.76658300  0.31937200  1.0
  Fe  Fe11  1  0.49880500  0.73341700  0.81937200  1.0
  Fe  Fe12  1  0.00128500  0.70084400  0.42857400  1.0
  Fe  Fe13  1  0.00119500  0.26658300  0.31937200  1.0
  Fe  Fe14  1  0.00119500  0.23341700  0.81937200  1.0
  Fe  Fe15  1  0.00128500  0.79915600  0.92857400  1.0
