# generated using pymatgen
data_Fe
_symmetry_space_group_name_H-M   'P 1'
_cell_length_a   9.80278411
_cell_length_b   10.68395234
_cell_length_c   10.67025607
_cell_angle_alpha   91.44888926
_cell_angle_beta   96.54510608
_cell_angle_gamma   101.08004958
_symmetry_Int_Tables_number   1
_chemical_formula_structural   Fe
_chemical_formula_sum   Fe32
_cell_volume   1088.26652435
_cell_formula_units_Z   32
loop_
 _symmetry_equiv_pos_site_id
 _symmetry_equiv_pos_as_xyz
  1  'x, y, z'
loop_
 _atom_site_type_symbol
 _atom_site_label
 _atom_site_symmetry_multiplicity
 _atom_site_fract_x
 _atom_site_fract_y
 _atom_site_fract_z
 _atom_site_occupancy
  Fe  Fe0  1  0.20825039  0.82381123  0.95623484  1.0
  Fe  Fe1  1  0.55362470  0.44109453  0.17738266  1.0
  Fe  Fe2  1  0.20567865  0.32112478  0.20834688  1.0
  Fe  Fe3  1  0.84181629  0.04734713  0.57955893  1.0
  Fe  Fe4  1  0.62165873  0.55767298  0.66988979  1.0
  Fe  Fe5  1  0.30370618  0.58106542  0.12397910  1.0
  Fe  Fe6  1  0.94696313  0.43687254  0.22235597  1.0
  Fe  Fe7  1  0.30474900  0.30036549  0.94718669  1.0
  Fe  Fe8  1  0.56772254  0.89503270  0.40564102  1.0
  Fe  Fe9  1  0.33506838  0.86700416  0.23411746  1.0
  Fe  Fe10  1  0.23741907  0.11362033  0.77436413  1.0
  Fe  Fe11  1  0.64835437  0.75691610  0.09248985  1.0
  Fe  Fe12  1  0.68271050  0.18545340  0.31637205  1.0
  Fe  Fe13  1  0.65973824  0.83409431  0.67993513  1.0
  Fe  Fe14  1  0.83901819  0.92587478  0.92855029  1.0
  Fe  Fe15  1  0.11704194  0.72677309  0.35801703  1.0
  Fe  Fe16  1  0.84969726  0.85435141  0.37739041  1.0
  Fe  Fe17  1  0.44527880  0.34881337  0.41483295  1.0
  Fe  Fe18  1  0.24554007  0.51515661  0.44497398  1.0
  Fe  Fe19  1  0.78811618  0.57043421  0.98625127  1.0
  Fe  Fe20  1  0.29316380  0.35294636  0.64817500  1.0
  Fe  Fe21  1  0.58863716  0.30856087  0.85820057  1.0
  Fe  Fe22  1  0.39031800  0.66341529  0.84483214  1.0
  Fe  Fe23  1  0.82510966  0.36556931  0.64101004  1.0
  Fe  Fe24  1  0.01725700  0.36667207  0.92058637  1.0
  Fe  Fe25  1  0.14059112  0.00502630  0.12510330  1.0
  Fe  Fe26  1  0.88583056  0.15107356  0.15429248  1.0
  Fe  Fe27  1  0.55729140  0.12328456  0.59816599  1.0
  Fe  Fe28  1  0.34025020  0.81365613  0.60868639  1.0
  Fe  Fe29  1  0.12521409  0.55545964  0.69614274  1.0
  Fe  Fe30  1  0.52607164  0.03147574  0.00932211  1.0
  Fe  Fe31  1  0.05397170  0.21629306  0.46935931  1.0
