# generated using pymatgen
data_Fe
_symmetry_space_group_name_H-M   'P 1'
_cell_length_a   8.64756077
_cell_length_b   10.37500235
_cell_length_c   10.93536246
_cell_angle_alpha   89.30778653
_cell_angle_beta   86.18267527
_cell_angle_gamma   88.15218881
_symmetry_Int_Tables_number   1
_chemical_formula_structural   Fe
_chemical_formula_sum   Fe32
_cell_volume   978.36963338
_cell_formula_units_Z   32
loop_
 _symmetry_equiv_pos_site_id
 _symmetry_equiv_pos_as_xyz
  1  'x, y, z'
loop_
 _atom_site_type_symbol
 _atom_site_label
 _atom_site_symmetry_multiplicity
 _atom_site_fract_x
 _atom_site_fract_y
 _atom_site_fract_z
 _atom_site_occupancy
  Fe  Fe0  1  0.36302812  0.04951627  0.93143746  1.0
  Fe  Fe1  1  0.69937832  0.52864073  0.92826040  1.0
  Fe  Fe2  1  0.05735702  0.59500505  0.75960153  1.0
  Fe  Fe3  1  0.46320583  0.54465522  0.17606880  1.0
  Fe  Fe4  1  0.32199378  0.23254140  0.38322515  1.0
  Fe  Fe5  1  0.71246037  0.56957496  0.42515623  1.0
  Fe  Fe6  1  0.58266466  0.79181025  0.19352007  1.0
  Fe  Fe7  1  0.38335221  0.04937802  0.59665059  1.0
  Fe  Fe8  1  0.93197323  0.66429394  0.04833036  1.0
  Fe  Fe9  1  0.65214125  0.90226503  0.42624745  1.0
  Fe  Fe10  1  0.07416317  0.07284944  0.08179554  1.0
  Fe  Fe11  1  0.27584052  0.80523883  0.99345824  1.0
  Fe  Fe12  1  0.36200266  0.78561845  0.53879231  1.0
  Fe  Fe13  1  0.82850140  0.36553400  0.19122300  1.0
  Fe  Fe14  1  0.69799661  0.24420245  0.47748280  1.0
  Fe  Fe15  1  0.69848978  0.91928963  0.96789840  1.0
  Fe  Fe16  1  0.77017815  0.03144648  0.20689375  1.0
  Fe  Fe17  1  0.31268862  0.53443205  0.47279027  1.0
  Fe  Fe18  1  0.58397860  0.49879657  0.68268392  1.0
  Fe  Fe19  1  0.98320681  0.06695079  0.43791361  1.0
  Fe  Fe20  1  0.19513692  0.27435899  0.79787953  1.0
  Fe  Fe21  1  0.99871026  0.41879509  0.50722379  1.0
  Fe  Fe22  1  0.87171789  0.28440881  0.70303277  1.0
  Fe  Fe23  1  0.53267219  0.27007497  0.09440811  1.0
  Fe  Fe24  1  0.23889684  0.93806919  0.29130696  1.0
  Fe  Fe25  1  0.76128389  0.85617560  0.66447130  1.0
  Fe  Fe26  1  0.05065318  0.97256560  0.75552370  1.0
  Fe  Fe27  1  0.10135194  0.63868725  0.26151965  1.0
  Fe  Fe28  1  0.16433954  0.36088653  0.06856162  1.0
  Fe  Fe29  1  0.55122043  0.24197702  0.78615861  1.0
  Fe  Fe30  1  0.99685313  0.74176721  0.51185097  1.0
  Fe  Fe31  1  0.34267770  0.52338594  0.88333759  1.0
