# generated using pymatgen
data_Fe
_symmetry_space_group_name_H-M   'P 1'
_cell_length_a   9.82123795
_cell_length_b   10.02216891
_cell_length_c   10.81936449
_cell_angle_alpha   95.46998566
_cell_angle_beta   90.87514004
_cell_angle_gamma   93.31263555
_symmetry_Int_Tables_number   1
_chemical_formula_structural   Fe
_chemical_formula_sum   Fe32
_cell_volume   1058.09893420
_cell_formula_units_Z   32
loop_
 _symmetry_equiv_pos_site_id
 _symmetry_equiv_pos_as_xyz
  1  'x, y, z'
loop_
 _atom_site_type_symbol
 _atom_site_label
 _atom_site_symmetry_multiplicity
 _atom_site_fract_x
 _atom_site_fract_y
 _atom_site_fract_z
 _atom_site_occupancy
  Fe  Fe0  1  0.87551196  0.41446635  0.72472339  1.0
  Fe  Fe1  1  0.68773488  0.56540828  0.04680148  1.0
  Fe  Fe2  1  0.81978731  0.69705394  0.83338585  1.0
  Fe  Fe3  1  0.46447361  0.92037113  0.16285918  1.0
  Fe  Fe4  1  0.22687219  0.48735476  0.39589198  1.0
  Fe  Fe5  1  0.51883650  0.42691173  0.45145216  1.0
  Fe  Fe6  1  0.03706599  0.46467182  0.96208503  1.0
  Fe  Fe7  1  0.02122330  0.63175511  0.53634270  1.0
  Fe  Fe8  1  0.48404694  0.08673043  0.70190374  1.0
  Fe  Fe9  1  0.68697700  0.17767529  0.51341825  1.0
  Fe  Fe10  1  0.22414867  0.87728214  0.74334698  1.0
  Fe  Fe11  1  0.71970475  0.32315764  0.25021968  1.0
  Fe  Fe12  1  0.70410048  0.69196712  0.32846362  1.0
  Fe  Fe13  1  0.34480197  0.16718370  0.29021985  1.0
  Fe  Fe14  1  0.98138260  0.26052950  0.48080736  1.0
  Fe  Fe15  1  0.73497694  0.22755456  0.95336698  1.0
  Fe  Fe16  1  0.76107657  0.91818509  0.11579501  1.0
  Fe  Fe17  1  0.70249647  0.68391704  0.59022355  1.0
  Fe  Fe18  1  0.55916750  0.41655660  0.74599665  1.0
  Fe  Fe19  1  0.95447127  0.17164535  0.17545799  1.0
  Fe  Fe20  1  0.32530053  0.60430699  0.67539800  1.0
  Fe  Fe21  1  0.22122751  0.04551042  0.51936820  1.0
  Fe  Fe22  1  0.22528990  0.28843328  0.76162120  1.0
  Fe  Fe23  1  0.32832814  0.60860946  0.11027116  1.0
  Fe  Fe24  1  0.05110337  0.76245711  0.00760587  1.0
  Fe  Fe25  1  0.97101814  0.98683957  0.85389488  1.0
  Fe  Fe26  1  0.16965528  0.81387906  0.30609239  1.0
  Fe  Fe27  1  0.49939760  0.91087157  0.44878314  1.0
  Fe  Fe28  1  0.38906759  0.14375886  0.95701515  1.0
  Fe  Fe29  1  0.20139279  0.31991615  0.12154730  1.0
  Fe  Fe30  1  0.92459215  0.92968609  0.52770282  1.0
  Fe  Fe31  1  0.55894360  0.78923676  0.86195148  1.0
