# generated using pymatgen
data_Fe
_symmetry_space_group_name_H-M   'P 1'
_cell_length_a   9.25609196
_cell_length_b   10.28126366
_cell_length_c   10.88277695
_cell_angle_alpha   93.38653990
_cell_angle_beta   98.21484566
_cell_angle_gamma   91.95766416
_symmetry_Int_Tables_number   1
_chemical_formula_structural   Fe
_chemical_formula_sum   Fe32
_cell_volume   1022.28390001
_cell_formula_units_Z   32
loop_
 _symmetry_equiv_pos_site_id
 _symmetry_equiv_pos_as_xyz
  1  'x, y, z'
loop_
 _atom_site_type_symbol
 _atom_site_label
 _atom_site_symmetry_multiplicity
 _atom_site_fract_x
 _atom_site_fract_y
 _atom_site_fract_z
 _atom_site_occupancy
  Fe  Fe0  1  0.50407770  0.03020657  0.12337427  1.0
  Fe  Fe1  1  0.82006493  0.12928278  0.00375700  1.0
  Fe  Fe2  1  0.46123637  0.74364144  0.13463442  1.0
  Fe  Fe3  1  0.92443341  0.59988231  0.43451716  1.0
  Fe  Fe4  1  0.96421821  0.88211303  0.93550680  1.0
  Fe  Fe5  1  0.17010704  0.19395617  0.05989859  1.0
  Fe  Fe6  1  0.71855253  0.07161156  0.43107904  1.0
  Fe  Fe7  1  0.30264949  0.55068281  0.34272910  1.0
  Fe  Fe8  1  0.02486105  0.06526344  0.23364826  1.0
  Fe  Fe9  1  0.28373216  0.76314735  0.55378527  1.0
  Fe  Fe10  1  0.27571640  0.03233366  0.61517782  1.0
  Fe  Fe11  1  0.32220127  0.97107538  0.32680406  1.0
  Fe  Fe12  1  0.69024082  0.62785516  0.94165961  1.0
  Fe  Fe13  1  0.81795715  0.94739364  0.67343587  1.0
  Fe  Fe14  1  0.99430610  0.36208045  0.81280825  1.0
  Fe  Fe15  1  0.98129360  0.38519739  0.24384505  1.0
  Fe  Fe16  1  0.07695773  0.67741592  0.76532127  1.0
  Fe  Fe17  1  0.14530030  0.54341957  0.02860828  1.0
  Fe  Fe18  1  0.66843405  0.32388223  0.79897243  1.0
  Fe  Fe19  1  0.65360562  0.27177898  0.24886981  1.0
  Fe  Fe20  1  0.56848623  0.91990750  0.80740762  1.0
  Fe  Fe21  1  0.16062359  0.47379615  0.56500308  1.0
  Fe  Fe22  1  0.63419311  0.54958113  0.26971151  1.0
  Fe  Fe23  1  0.40378420  0.39437261  0.04939533  1.0
  Fe  Fe24  1  0.42728720  0.17807085  0.87539878  1.0
  Fe  Fe25  1  0.24597888  0.94356634  0.86396047  1.0
  Fe  Fe26  1  0.96845838  0.89309048  0.41462740  1.0
  Fe  Fe27  1  0.59161514  0.75834859  0.48574822  1.0
  Fe  Fe28  1  0.80806431  0.80085431  0.15344708  1.0
  Fe  Fe29  1  0.89037890  0.29274189  0.55493877  1.0
  Fe  Fe30  1  0.37000030  0.24330240  0.36883458  1.0
  Fe  Fe31  1  0.47542484  0.62506348  0.72993220  1.0
