# generated using pymatgen
data_Fe
_symmetry_space_group_name_H-M   'P 1'
_cell_length_a   9.52475518
_cell_length_b   9.69261424
_cell_length_c   10.65193576
_cell_angle_alpha   89.15374236
_cell_angle_beta   89.30300184
_cell_angle_gamma   87.46853615
_symmetry_Int_Tables_number   1
_chemical_formula_structural   Fe
_chemical_formula_sum   Fe32
_cell_volume   982.25227840
_cell_formula_units_Z   32
loop_
 _symmetry_equiv_pos_site_id
 _symmetry_equiv_pos_as_xyz
  1  'x, y, z'
loop_
 _atom_site_type_symbol
 _atom_site_label
 _atom_site_symmetry_multiplicity
 _atom_site_fract_x
 _atom_site_fract_y
 _atom_site_fract_z
 _atom_site_occupancy
  Fe  Fe0  1  0.91003955  0.00003892  0.36129957  1.0
  Fe  Fe1  1  0.39301829  0.99561237  0.72181817  1.0
  Fe  Fe2  1  0.16957790  0.17983778  0.31934692  1.0
  Fe  Fe3  1  0.65819296  0.94069042  0.17906545  1.0
  Fe  Fe4  1  0.78149367  0.72285627  0.59778886  1.0
  Fe  Fe5  1  0.42897738  0.65525538  0.57581411  1.0
  Fe  Fe6  1  0.13938596  0.87489154  0.55564309  1.0
  Fe  Fe7  1  0.94293579  0.41737095  0.43274455  1.0
  Fe  Fe8  1  0.37191599  0.52368012  0.86692487  1.0
  Fe  Fe9  1  0.12066367  0.55678762  0.63165456  1.0
  Fe  Fe10  1  0.95812959  0.97742076  0.07510882  1.0
  Fe  Fe11  1  0.37203280  0.99100610  0.05182630  1.0
  Fe  Fe12  1  0.25326714  0.50698136  0.37432866  1.0
  Fe  Fe13  1  0.64994252  0.78321675  0.91912321  1.0
  Fe  Fe14  1  0.75847000  0.43859178  0.66828087  1.0
  Fe  Fe15  1  0.08423394  0.19788435  0.61166654  1.0
  Fe  Fe16  1  0.94666089  0.91534152  0.79529127  1.0
  Fe  Fe17  1  0.56343268  0.47781616  0.31948729  1.0
  Fe  Fe18  1  0.42985566  0.26549596  0.55966209  1.0
  Fe  Fe19  1  0.94845588  0.64360121  0.89813572  1.0
  Fe  Fe20  1  0.78749559  0.27062233  0.24006234  1.0
  Fe  Fe21  1  0.68269753  0.46722300  0.98004899  1.0
  Fe  Fe22  1  0.89053619  0.26842814  0.89271276  1.0
  Fe  Fe23  1  0.60795538  0.94985408  0.44810466  1.0
  Fe  Fe24  1  0.98916840  0.73704177  0.33796888  1.0
  Fe  Fe25  1  0.19430862  0.19661577  0.86874254  1.0
  Fe  Fe26  1  0.89131854  0.53832346  0.16211240  1.0
  Fe  Fe27  1  0.44518120  0.65131934  0.12084428  1.0
  Fe  Fe28  1  0.64732808  0.08709587  0.92145786  1.0
  Fe  Fe29  1  0.72592065  0.14983186  0.62925967  1.0
  Fe  Fe30  1  0.20841485  0.44351913  0.07936023  1.0
  Fe  Fe31  1  0.44229925  0.17816536  0.24767465  1.0
