# generated using pymatgen
data_Fe
_symmetry_space_group_name_H-M   'P 1'
_cell_length_a   5.21533700
_cell_length_b   8.95247400
_cell_length_c   9.59551900
_cell_angle_alpha   90.00000000
_cell_angle_beta   90.00000000
_cell_angle_gamma   90.00000000
_symmetry_Int_Tables_number   1
_chemical_formula_structural   Fe
_chemical_formula_sum   Fe16
_cell_volume   448.01640273
_cell_formula_units_Z   16
loop_
 _symmetry_equiv_pos_site_id
 _symmetry_equiv_pos_as_xyz
  1  'x, y, z'
loop_
 _atom_site_type_symbol
 _atom_site_label
 _atom_site_symmetry_multiplicity
 _atom_site_fract_x
 _atom_site_fract_y
 _atom_site_fract_z
 _atom_site_occupancy
  Fe  Fe0  1  0.68771100  0.34032700  0.87180800  1.0
  Fe  Fe1  1  0.31228900  0.65967300  0.37180800  1.0
  Fe  Fe2  1  0.18771100  0.15967300  0.87180800  1.0
  Fe  Fe3  1  0.81228900  0.84032700  0.37180800  1.0
  Fe  Fe4  1  0.67770600  0.65106900  0.06188200  1.0
  Fe  Fe5  1  0.17770600  0.84893100  0.06188200  1.0
  Fe  Fe6  1  0.82229400  0.15106900  0.56188200  1.0
  Fe  Fe7  1  0.32229400  0.34893100  0.56188200  1.0
  Fe  Fe8  1  0.69141000  0.65270700  0.64497200  1.0
  Fe  Fe9  1  0.80859000  0.15270700  0.14497200  1.0
  Fe  Fe10  1  0.30859000  0.34729300  0.14497200  1.0
  Fe  Fe11  1  0.19141000  0.84729300  0.64497200  1.0
  Fe  Fe12  1  0.17561800  0.53155400  0.85944700  1.0
  Fe  Fe13  1  0.67561800  0.96844600  0.85944700  1.0
  Fe  Fe14  1  0.82438200  0.46844600  0.35944700  1.0
  Fe  Fe15  1  0.32438200  0.03155400  0.35944700  1.0
