# generated using pymatgen
data_Fe2O3
_symmetry_space_group_name_H-M   'P 1'
_cell_length_a   10.65193576
_cell_length_b   9.69261424
_cell_length_c   9.52475518
_cell_angle_alpha   87.46853615
_cell_angle_beta   89.30300184
_cell_angle_gamma   89.15374236
_symmetry_Int_Tables_number   1
_chemical_formula_structural   Fe2O3
_chemical_formula_sum   'Fe32 O48'
_cell_volume   982.25227797
_cell_formula_units_Z   16
loop_
 _symmetry_equiv_pos_site_id
 _symmetry_equiv_pos_as_xyz
  1  'x, y, z'
loop_
 _atom_site_type_symbol
 _atom_site_label
 _atom_site_symmetry_multiplicity
 _atom_site_fract_x
 _atom_site_fract_y
 _atom_site_fract_z
 _atom_site_occupancy
  Fe  Fe0  1  0.63870043  -0.00003892  0.08996045  1
  Fe  Fe1  1  0.27818183  0.00438763  0.60698171  1
  Fe  Fe2  1  0.68065308  0.82016222  0.83042210  1
  Fe  Fe3  1  0.82093455  0.05930958  0.34180704  1
  Fe  Fe4  1  0.40221114  0.27714373  0.21850633  1
  Fe  Fe5  1  0.42418589  0.34474462  0.57102262  1
  Fe  Fe6  1  0.44435691  0.12510846  0.86061404  1
  Fe  Fe7  1  0.56725545  0.58262905  0.05706421  1
  Fe  Fe8  1  0.13307513  0.47631988  0.62808401  1
  Fe  Fe9  1  0.36834544  0.44321238  0.87933633  1
  Fe  Fe10  1  0.92489118  0.02257924  0.04187041  1
  Fe  Fe11  1  0.94817370  0.00899390  0.62796720  1
  Fe  Fe12  1  0.62567134  0.49301864  0.74673286  1
  Fe  Fe13  1  0.08087679  0.21678325  0.35005748  1
  Fe  Fe14  1  0.33171913  0.56140822  0.24153000  1
  Fe  Fe15  1  0.38833346  0.80211565  0.91576606  1
  Fe  Fe16  1  0.20470873  0.08465848  0.05333911  1
  Fe  Fe17  1  0.68051271  0.52218384  0.43656732  1
  Fe  Fe18  1  0.44033791  0.73450404  0.57014434  1
  Fe  Fe19  1  0.10186428  0.35639879  0.05154412  1
  Fe  Fe20  1  0.75993766  0.72937767  0.21250441  1
  Fe  Fe21  1  0.01995101  0.53277700  0.31730247  1
  Fe  Fe22  1  0.10728724  0.73157186  0.10946381  1
  Fe  Fe23  1  0.55189534  0.05014592  0.39204462  1
  Fe  Fe24  1  0.66203112  0.26295823  0.01083160  1
  Fe  Fe25  1  0.13125746  0.80338423  0.80569138  1
  Fe  Fe26  1  0.83788760  0.46167654  0.10868146  1
  Fe  Fe27  1  0.87915572  0.34868066  0.55481880  1
  Fe  Fe28  1  0.07854214  0.91290413  0.35267192  1
  Fe  Fe29  1  0.37074033  0.85016814  0.27407935  1
  Fe  Fe30  1  0.92063977  0.55648087  0.79158515  1
  Fe  Fe31  1  0.75232535  0.82183464  0.55770075  1
  O  O32  1  0.70740644  0.37500364  0.60147738  1
  O  O33  1  0.68090918  0.74198738  0.02597546  1
  O  O34  1  0.52567953  0.53764804  0.56555288  1
  O  O35  1  0.04820198  0.16118369  0.99082553  1
  O  O36  1  0.86657497  0.51058278  0.43569957  1
  O  O37  1  0.68315333  0.15279801  0.24114834  1
  O  O38  1  0.31799262  0.81335718  0.70763787  1
  O  O39  1  0.37857966  0.15379276  0.66628206  1
  O  O40  1  0.16518643  0.52752765  0.16427246  1
  O  O41  1  0.98266782  0.38912273  0.70798689  1
  O  O42  1  0.48098128  0.22765163  0.40207593  1
  O  O43  1  0.49219871  0.17616840  0.05746265  1
  O  O44  1  0.22707553  0.70656108  0.94968295  1
  O  O45  1  0.92209009  0.16954734  0.49100342  1
  O  O46  1  0.50779449  0.33146140  0.79803765  1
  O  O47  1  0.16525769  0.05574426  0.44872844  1
  O  O48  1  0.31025401  0.99704374  0.92069621  1
  O  O49  1  0.24912494  0.31287407  0.93931177  1
  O  O50  1  0.76361912  0.63621156  0.73307250  1
  O  O51  1  0.76818682  0.10204590  0.96968952  1
  O  O52  1  0.21126718  0.91325253  0.18530919  1
  O  O53  1  0.96932559  0.35073151  0.21626240  1
  O  O54  1  0.69948320  0.00760647  0.48921769  1
  O  O55  1  0.35200019  0.68544581  0.39471762  1
  O  O56  1  0.91431220  0.63591136  0.16706514  1
  O  O57  1  0.82169681  0.91077183  0.73546032  1
  O  O58  1  0.10211685  0.39449687  0.45156383  1
  O  O59  1  0.40671699  0.93072425  0.46735278  1
  O  O60  1  0.06377830  0.64943453  0.70438788  1
  O  O61  1  0.54663303  0.94597691  0.90475415  1
  O  O62  1  0.70155130  0.45443741  0.95616567  1
  O  O63  1  0.35652022  0.41188316  0.37089134  1
  O  O64  1  0.48624800  0.61079258  0.86557242  1
  O  O65  1  0.92331622  0.88824126  0.47401458  1
  O  O66  1  0.10842326  0.97843769  0.70736918  1
  O  O67  1  0.80028505  0.92112594  0.18492021  1
  O  O68  1  0.99026665  0.06298549  0.24478020  1
  O  O69  1  0.97029606  0.47587428  0.96514394  1
  O  O70  1  0.22353079  0.22137269  0.20356816  1
  O  O71  1  0.69127136  0.72126557  0.40271730  1
  O  O72  1  0.52382769  0.93906069  0.23243187  1
  O  O73  1  0.09038377  0.72072875  0.32234573  1
  O  O74  1  0.30051469  0.45513714  0.67962955  1
  O  O75  1  0.58663016  0.80627421  0.65843843  1
  O  O76  1  0.41961198  0.71557812  0.12365173  1
  O  O77  1  0.42919188  0.44658024  0.10057722  1
  O  O78  1  0.01803727  0.85731974  0.97659533  1
  O  O79  1  0.67913586  0.52046312  0.22457820  1
