# generated using pymatgen
data_Fe
_symmetry_space_group_name_H-M   'P 1'
_cell_length_a   8.52521600
_cell_length_b   8.52521600
_cell_length_c   25.59301600
_cell_angle_alpha   90.00000000
_cell_angle_beta   90.00000000
_cell_angle_gamma   90.00000000
_symmetry_Int_Tables_number   1
_chemical_formula_structural   Fe
_chemical_formula_sum   Fe64
_cell_volume   1860.08268859
_cell_formula_units_Z   64
loop_
 _symmetry_equiv_pos_site_id
 _symmetry_equiv_pos_as_xyz
  1  'x, y, z'
loop_
 _atom_site_type_symbol
 _atom_site_label
 _atom_site_symmetry_multiplicity
 _atom_site_fract_x
 _atom_site_fract_y
 _atom_site_fract_z
 _atom_site_occupancy
  Fe  Fe0  1  0.24738500  0.51341500  0.71079900  1.0
  Fe  Fe1  1  0.75261500  0.48658500  0.21079900  1.0
  Fe  Fe2  1  0.01341500  0.25261500  0.46079900  1.0
  Fe  Fe3  1  0.98658500  0.74738500  0.96079900  1.0
  Fe  Fe4  1  0.48658500  0.75261500  0.78920100  1.0
  Fe  Fe5  1  0.51341500  0.24738500  0.28920100  1.0
  Fe  Fe6  1  0.25261500  0.01341500  0.53920100  1.0
  Fe  Fe7  1  0.74738500  0.98658500  0.03920100  1.0
  Fe  Fe8  1  0.75737100  0.49872000  0.54396500  1.0
  Fe  Fe9  1  0.24262900  0.50128000  0.04396500  1.0
  Fe  Fe10  1  0.99872000  0.74262900  0.29396500  1.0
  Fe  Fe11  1  0.00128000  0.25737100  0.79396500  1.0
  Fe  Fe12  1  0.50128000  0.24262900  0.95603500  1.0
  Fe  Fe13  1  0.49872000  0.75737100  0.45603500  1.0
  Fe  Fe14  1  0.74262900  0.99872000  0.70603500  1.0
  Fe  Fe15  1  0.25737100  0.00128000  0.20603500  1.0
  Fe  Fe16  1  0.99351400  0.74132800  0.62619900  1.0
  Fe  Fe17  1  0.00648600  0.25867200  0.12619900  1.0
  Fe  Fe18  1  0.24132800  0.50648600  0.37619900  1.0
  Fe  Fe19  1  0.75867200  0.49351400  0.87619900  1.0
  Fe  Fe20  1  0.25867200  0.00648600  0.87380100  1.0
  Fe  Fe21  1  0.74132800  0.99351400  0.37380100  1.0
  Fe  Fe22  1  0.50648600  0.24132800  0.62380100  1.0
  Fe  Fe23  1  0.49351400  0.75867200  0.12380100  1.0
  Fe  Fe24  1  0.11040300  0.88959700  0.75000000  1.0
  Fe  Fe25  1  0.88959700  0.11040300  0.25000000  1.0
  Fe  Fe26  1  0.38959700  0.38959700  0.50000000  1.0
  Fe  Fe27  1  0.61040300  0.61040300  0.00000000  1.0
  Fe  Fe28  1  0.88454200  0.12129900  0.58594100  1.0
  Fe  Fe29  1  0.11545800  0.87870100  0.08594100  1.0
  Fe  Fe30  1  0.62129900  0.61545800  0.33594100  1.0
  Fe  Fe31  1  0.37870100  0.38454200  0.83594100  1.0
  Fe  Fe32  1  0.87870100  0.11545800  0.91405900  1.0
  Fe  Fe33  1  0.12129900  0.88454200  0.41405900  1.0
  Fe  Fe34  1  0.61545800  0.62129900  0.66405900  1.0
  Fe  Fe35  1  0.38454200  0.37870100  0.16405900  1.0
  Fe  Fe36  1  0.88550600  0.36889500  0.66867800  1.0
  Fe  Fe37  1  0.11449400  0.63110500  0.16867800  1.0
  Fe  Fe38  1  0.86889500  0.61449400  0.41867800  1.0
  Fe  Fe39  1  0.13110500  0.38550600  0.91867800  1.0
  Fe  Fe40  1  0.63110500  0.11449400  0.83132200  1.0
  Fe  Fe41  1  0.36889500  0.88550600  0.33132200  1.0
  Fe  Fe42  1  0.61449400  0.86889500  0.58132200  1.0
  Fe  Fe43  1  0.38550600  0.13110500  0.08132200  1.0
  Fe  Fe44  1  0.35670700  0.87602600  0.66197500  1.0
  Fe  Fe45  1  0.64329300  0.12397400  0.16197500  1.0
  Fe  Fe46  1  0.37602600  0.14329300  0.41197500  1.0
  Fe  Fe47  1  0.62397400  0.85670700  0.91197500  1.0
  Fe  Fe48  1  0.12397400  0.64329300  0.83802500  1.0
  Fe  Fe49  1  0.87602600  0.35670700  0.33802500  1.0
  Fe  Fe50  1  0.14329300  0.37602600  0.58802500  1.0
  Fe  Fe51  1  0.85670700  0.62397400  0.08802500  1.0
  Fe  Fe52  1  0.36337300  0.13051400  0.74637700  1.0
  Fe  Fe53  1  0.63662700  0.86948600  0.24637700  1.0
  Fe  Fe54  1  0.63051400  0.13662700  0.49637700  1.0
  Fe  Fe55  1  0.36948600  0.86337300  0.99637700  1.0
  Fe  Fe56  1  0.86948600  0.63662700  0.75362300  1.0
  Fe  Fe57  1  0.13051400  0.36337300  0.25362300  1.0
  Fe  Fe58  1  0.13662700  0.63051400  0.50362300  1.0
  Fe  Fe59  1  0.86337300  0.36948600  0.00362300  1.0
  Fe  Fe60  1  0.62443700  0.37556300  0.75000000  1.0
  Fe  Fe61  1  0.37556300  0.62443700  0.25000000  1.0
  Fe  Fe62  1  0.87556300  0.87556300  0.50000000  1.0
  Fe  Fe63  1  0.12443700  0.12443700  0.00000000  1.0
