# generated using pymatgen
data_Fe
_symmetry_space_group_name_H-M   'P 1'
_cell_length_a   8.45637823
_cell_length_b   8.47629187
_cell_length_c   25.29079095
_cell_angle_alpha   90.06765391
_cell_angle_beta   90.00086636
_cell_angle_gamma   89.99125302
_symmetry_Int_Tables_number   1
_chemical_formula_structural   Fe
_chemical_formula_sum   Fe64
_cell_volume   1812.81049194
_cell_formula_units_Z   64
loop_
 _symmetry_equiv_pos_site_id
 _symmetry_equiv_pos_as_xyz
  1  'x, y, z'
loop_
 _atom_site_type_symbol
 _atom_site_label
 _atom_site_symmetry_multiplicity
 _atom_site_fract_x
 _atom_site_fract_y
 _atom_site_fract_z
 _atom_site_occupancy
  Fe  Fe0  1  0.38344676  0.98896855  0.20756454  1.0
  Fe  Fe1  1  0.87483064  0.00058632  0.37474919  1.0
  Fe  Fe2  1  0.37931579  0.00222986  0.54029110  1.0
  Fe  Fe3  1  0.37553058  0.00991246  0.87288784  1.0
  Fe  Fe4  1  0.11420843  0.00142934  0.12155236  1.0
  Fe  Fe5  1  0.13643180  0.00857149  0.45862825  1.0
  Fe  Fe6  1  0.12582922  0.00387443  0.79125473  1.0
  Fe  Fe7  1  0.24840895  0.12392836  0.33172754  1.0
  Fe  Fe8  1  0.25781530  0.12892549  0.66761488  1.0
  Fe  Fe9  1  0.25055023  0.11966817  0.99954958  1.0
  Fe  Fe10  1  0.74905216  0.12523527  0.16843701  1.0
  Fe  Fe11  1  0.74757258  0.13032990  0.50119083  1.0
  Fe  Fe12  1  0.75947503  0.12385495  0.83452623  1.0
  Fe  Fe13  1  0.63487974  0.24308949  0.04112654  1.0
  Fe  Fe14  1  0.61631406  0.25055789  0.37675266  1.0
  Fe  Fe15  1  0.62402859  0.23882363  0.71128391  1.0
  Fe  Fe16  1  0.37475857  0.25194564  0.12420415  1.0
  Fe  Fe17  1  0.87380996  0.25192692  0.29201381  1.0
  Fe  Fe18  1  0.87740990  0.24195371  0.62684351  1.0
  Fe  Fe19  1  0.87991054  0.24839582  0.96043961  1.0
  Fe  Fe20  1  0.12541677  0.25677866  0.21146227  1.0
  Fe  Fe21  1  0.12787152  0.25186571  0.54118769  1.0
  Fe  Fe22  1  0.13179684  0.25593613  0.87528498  1.0
  Fe  Fe23  1  0.50857917  0.37646767  0.24949289  1.0
  Fe  Fe24  1  0.50073996  0.36481104  0.58289297  1.0
  Fe  Fe25  1  0.49922245  0.37967250  0.92004432  1.0
  Fe  Fe26  1  0.00260832  0.38726044  0.08204449  1.0
  Fe  Fe27  1  0.00009255  0.37251650  0.41816286  1.0
  Fe  Fe28  1  0.99978064  0.37201730  0.75146658  1.0
  Fe  Fe29  1  0.37317364  0.50260045  0.04117765  1.0
  Fe  Fe30  1  0.36845123  0.49333310  0.37482939  1.0
  Fe  Fe31  1  0.37441485  0.49827098  0.70818323  1.0
  Fe  Fe32  1  0.12614896  0.49883735  0.62515139  1.0
  Fe  Fe33  1  0.62295542  0.50290331  0.12491903  1.0
  Fe  Fe34  1  0.61555821  0.49940605  0.46225481  1.0
  Fe  Fe35  1  0.61822584  0.48990520  0.79202409  1.0
  Fe  Fe36  1  0.87072568  0.50994438  0.21185819  1.0
  Fe  Fe37  1  0.87491349  0.49841371  0.54169023  1.0
  Fe  Fe38  1  0.88561655  0.50437719  0.87815075  1.0
  Fe  Fe39  1  0.74991644  0.62433923  0.00193157  1.0
  Fe  Fe40  1  0.74324664  0.62614483  0.33333333  1.0
  Fe  Fe41  1  0.74844873  0.62039089  0.66652085  1.0
  Fe  Fe42  1  0.24374669  0.62449667  0.16579724  1.0
  Fe  Fe43  1  0.24646326  0.62802847  0.49882581  1.0
  Fe  Fe44  1  0.25270072  0.62616123  0.83221291  1.0
  Fe  Fe45  1  0.38015577  0.74279330  0.28935742  1.0
  Fe  Fe46  1  0.38431164  0.74657153  0.62140930  1.0
  Fe  Fe47  1  0.37121545  0.74864183  0.95911524  1.0
  Fe  Fe48  1  0.12484116  0.74839882  0.03995922  1.0
  Fe  Fe49  1  0.12127260  0.73983506  0.37225587  1.0
  Fe  Fe50  1  0.12154232  0.76237778  0.70823927  1.0
  Fe  Fe51  1  0.62378090  0.74959348  0.87663274  1.0
  Fe  Fe52  1  0.86756346  0.75284446  0.12405010  1.0
  Fe  Fe53  1  0.86961453  0.75093564  0.46169622  1.0
  Fe  Fe54  1  0.87252544  0.75739205  0.78951258  1.0
  Fe  Fe55  1  0.50321281  0.87044190  0.08096353  1.0
  Fe  Fe56  1  0.50045395  0.86937580  0.41717146  1.0
  Fe  Fe57  1  0.49218175  0.87397472  0.74897250  1.0
  Fe  Fe58  1  0.00184182  0.87907053  0.24829007  1.0
  Fe  Fe59  1  0.00299350  0.87333148  0.58204981  1.0
  Fe  Fe60  1  0.00101164  0.88125023  0.91954518  1.0
  Fe  Fe61  1  0.62705135  0.99910291  0.29142063  1.0
  Fe  Fe62  1  0.63317269  0.99021723  0.62385380  1.0
  Fe  Fe63  1  0.62538181  0.99767548  0.95865660  1.0
