# generated using pymatgen
data_Fe
_symmetry_space_group_name_H-M   'P 1'
_cell_length_a   5.99034628
_cell_length_b   5.99034628
_cell_length_c   14.60922379
_cell_angle_alpha   89.55343778
_cell_angle_beta   89.55343778
_cell_angle_gamma   60.19349990
_symmetry_Int_Tables_number   1
_chemical_formula_structural   Fe
_chemical_formula_sum   Fe16
_cell_volume   454.87022648
_cell_formula_units_Z   16
loop_
 _symmetry_equiv_pos_site_id
 _symmetry_equiv_pos_as_xyz
  1  'x, y, z'
loop_
 _atom_site_type_symbol
 _atom_site_label
 _atom_site_symmetry_multiplicity
 _atom_site_fract_x
 _atom_site_fract_y
 _atom_site_fract_z
 _atom_site_occupancy
  Fe  Fe0  1  0.66023500  0.66023500  0.94953200  1.0
  Fe  Fe1  1  0.00780500  0.00780500  0.98998900  1.0
  Fe  Fe2  1  0.66486300  0.16676200  0.83555700  1.0
  Fe  Fe3  1  0.99309400  0.99309400  0.63603300  1.0
  Fe  Fe4  1  0.16676200  0.66486300  0.83555700  1.0
  Fe  Fe5  1  0.32605500  0.32605500  0.67883700  1.0
  Fe  Fe6  1  0.00356200  0.49711300  0.50142800  1.0
  Fe  Fe7  1  0.49711300  0.00356200  0.50142800  1.0
  Fe  Fe8  1  0.66637900  0.66637900  0.32377000  1.0
  Fe  Fe9  1  0.34024500  0.83116000  0.16584800  1.0
  Fe  Fe10  1  0.67055500  0.67055500  0.71574600  1.0
  Fe  Fe11  1  0.83116000  0.34024500  0.16584800  1.0
  Fe  Fe12  1  0.49743600  0.49743600  0.50141700  1.0
  Fe  Fe13  1  0.00103700  0.00103700  0.37227000  1.0
  Fe  Fe14  1  0.83074700  0.83074700  0.16539900  1.0
  Fe  Fe15  1  0.33998500  0.33998500  0.03921000  1.0
