# generated using pymatgen
data_Mn
_symmetry_space_group_name_H-M   'P 1'
_cell_length_a   7.85374364
_cell_length_b   7.85582522
_cell_length_c   7.85717977
_cell_angle_alpha   108.77752395
_cell_angle_beta   108.90352265
_cell_angle_gamma   108.83147853
_symmetry_Int_Tables_number   1
_chemical_formula_structural   Mn
_chemical_formula_sum   Mn13
_cell_volume   381.67988752
_cell_formula_units_Z   13
loop_
 _symmetry_equiv_pos_site_id
 _symmetry_equiv_pos_as_xyz
  1  'x, y, z'
loop_
 _atom_site_type_symbol
 _atom_site_label
 _atom_site_symmetry_multiplicity
 _atom_site_fract_x
 _atom_site_fract_y
 _atom_site_fract_z
 _atom_site_occupancy
  Mn  Mn0  1  0.81231500  0.16701400  0.81232900  1.0
  Mn  Mn1  1  0.17667100  0.17668100  0.39617900  1.0
  Mn  Mn2  1  0.17664600  0.39612000  0.17674000  1.0
  Mn  Mn3  1  0.18777200  0.18772200  0.83309000  1.0
  Mn  Mn4  1  0.82333100  0.82330800  0.60369300  1.0
  Mn  Mn5  1  0.82316800  0.60382700  0.82319800  1.0
  Mn  Mn6  1  0.16681200  0.81221300  0.81229400  1.0
  Mn  Mn7  1  0.83304800  0.18785000  0.18772900  1.0
  Mn  Mn8  1  0.81236700  0.81225300  0.16684600  1.0
  Mn  Mn9  1  0.18771200  0.83314300  0.18771000  1.0
  Mn  Mn10  1  0.39622000  0.17659800  0.17685100  1.0
  Mn  Mn11  1  0.60396200  0.82333900  0.82324200  1.0
  Mn  Mn12  1  0.49987200  0.49999800  0.49992600  1.0
