# generated using pymatgen
data_Sm2Ga2Fe15
_symmetry_space_group_name_H-M   'P 1'
_cell_length_a   6.45498067
_cell_length_b   6.50848911
_cell_length_c   6.45498050
_cell_angle_alpha   83.10989146
_cell_angle_beta   82.55236363
_cell_angle_gamma   83.10989484
_symmetry_Int_Tables_number   1
_chemical_formula_structural   Sm2Ga2Fe15
_chemical_formula_sum   'Sm2 Ga2 Fe15'
_cell_volume   265.45196348
_cell_formula_units_Z   1
loop_
 _symmetry_equiv_pos_site_id
 _symmetry_equiv_pos_as_xyz
  1  'x, y, z'
loop_
 _atom_site_type_symbol
 _atom_site_label
 _atom_site_symmetry_multiplicity
 _atom_site_fract_x
 _atom_site_fract_y
 _atom_site_fract_z
 _atom_site_occupancy
  Sm  Sm0  1  0.66208600  0.66636300  0.66208600  1
  Sm  Sm1  1  0.34326900  0.34223100  0.34326900  1
  Ga  Ga2  1  0.84720400  0.34417500  0.34411200  1
  Ga  Ga3  1  0.34411200  0.34417500  0.84720400  1
  Fe  Fe4  1  0.90415300  0.90271800  0.90415300  1
  Fe  Fe5  1  0.09559800  0.09158700  0.09559800  1
  Fe  Fe6  1  0.28847000  0.71142600  0.00105700  1
  Fe  Fe7  1  0.70902500  0.99874900  0.28985000  1
  Fe  Fe8  1  0.99666900  0.28796400  0.71137400  1
  Fe  Fe9  1  0.28985000  0.99874900  0.70902500  1
  Fe  Fe10  1  0.00105700  0.71142600  0.28847000  1
  Fe  Fe11  1  0.71137400  0.28796400  0.99666900  1
  Fe  Fe12  1  0.99952600  0.99769400  0.49926600  1
  Fe  Fe13  1  0.99606200  0.50334500  0.99606200  1
  Fe  Fe14  1  0.49926600  0.99769400  0.99952600  1
  Fe  Fe15  1  0.34234600  0.84554600  0.34234600  1
  Fe  Fe16  1  0.15354100  0.66253200  0.65634800  1
  Fe  Fe17  1  0.65634800  0.66253200  0.15354100  1
  Fe  Fe18  1  0.66004600  0.14313300  0.66004600  1
