# generated using pymatgen
data_Cu
_symmetry_space_group_name_H-M   'P 1'
_cell_length_a   3.67496400
_cell_length_b   6.47320517
_cell_length_c   6.47320517
_cell_angle_alpha   85.37830648
_cell_angle_beta   73.50930129
_cell_angle_gamma   73.50930130
_symmetry_Int_Tables_number   1
_chemical_formula_structural   Cu
_chemical_formula_sum   Cu4
_cell_volume   141.58182867
_cell_formula_units_Z   4
loop_
 _symmetry_equiv_pos_site_id
 _symmetry_equiv_pos_as_xyz
  1  'x, y, z'
loop_
 _atom_site_type_symbol
 _atom_site_label
 _atom_site_symmetry_multiplicity
 _atom_site_fract_x
 _atom_site_fract_y
 _atom_site_fract_z
 _atom_site_occupancy
  Cu  Cu0  1  0.83262600  0.33474800  0.00000000  1.0
  Cu  Cu1  1  0.16737400  1.00000000  0.66525200  1.0
  Cu  Cu2  1  0.83262600  1.00000000  0.33474800  1.0
  Cu  Cu3  1  0.16737400  0.66525200  1.00000000  1.0
