# generated using pymatgen
data_Co
_symmetry_space_group_name_H-M   'P 1'
_cell_length_a   3.90833816
_cell_length_b   3.90833816
_cell_length_c   7.20958979
_cell_angle_alpha   74.27316169
_cell_angle_beta   74.27316169
_cell_angle_gamma   59.99999731
_symmetry_Int_Tables_number   1
_chemical_formula_structural   Co
_chemical_formula_sum   Co2
_cell_volume   90.58133402
_cell_formula_units_Z   2
loop_
 _symmetry_equiv_pos_site_id
 _symmetry_equiv_pos_as_xyz
  1  'x, y, z'
loop_
 _atom_site_type_symbol
 _atom_site_label
 _atom_site_symmetry_multiplicity
 _atom_site_fract_x
 _atom_site_fract_y
 _atom_site_fract_z
 _atom_site_occupancy
  Co  Co0  1  0.33263500  0.33263500  0.00209500  1.0
  Co  Co1  1  0.66736500  0.66736500  0.99790500  1.0
