# generated using pymatgen
data_Co
_symmetry_space_group_name_H-M   'P 1'
_cell_length_a   5.50299506
_cell_length_b   5.50309406
_cell_length_c   6.83901480
_cell_angle_alpha   66.27270736
_cell_angle_beta   89.66301175
_cell_angle_gamma   89.18282667
_symmetry_Int_Tables_number   1
_chemical_formula_structural   Co
_chemical_formula_sum   Co2
_cell_volume   189.58327730
_cell_formula_units_Z   2
loop_
 _symmetry_equiv_pos_site_id
 _symmetry_equiv_pos_as_xyz
  1  'x, y, z'
loop_
 _atom_site_type_symbol
 _atom_site_label
 _atom_site_symmetry_multiplicity
 _atom_site_fract_x
 _atom_site_fract_y
 _atom_site_fract_z
 _atom_site_occupancy
  Co  Co0  1  0.49957249  0.50147964  0.99996767  1.0
  Co  Co1  1  0.00054919  0.00167398  0.99998767  1.0
