# generated using pymatgen
data_Mn
_symmetry_space_group_name_H-M   'P 1'
_cell_length_a   5.45222321
_cell_length_b   5.45263118
_cell_length_c   9.26831984
_cell_angle_alpha   107.08603579
_cell_angle_beta   107.08225918
_cell_angle_gamma   90.02654295
_symmetry_Int_Tables_number   1
_chemical_formula_structural   Mn
_chemical_formula_sum   Mn4
_cell_volume   250.61972018
_cell_formula_units_Z   4
loop_
 _symmetry_equiv_pos_site_id
 _symmetry_equiv_pos_as_xyz
  1  'x, y, z'
loop_
 _atom_site_type_symbol
 _atom_site_label
 _atom_site_symmetry_multiplicity
 _atom_site_fract_x
 _atom_site_fract_y
 _atom_site_fract_z
 _atom_site_occupancy
  Mn  Mn0  1  0.81217500  0.78114900  0.50044400  1.0
  Mn  Mn1  1  0.18773000  0.28041700  0.49999600  1.0
  Mn  Mn2  1  0.49984100  0.49070000  0.99965100  1.0
  Mn  Mn3  1  0.00004100  0.99032300  0.99963600  1.0
