# generated using pymatgen
data_Mn
_symmetry_space_group_name_H-M   'P 1'
_cell_length_a   3.68779150
_cell_length_b   5.71600586
_cell_length_c   5.71600728
_cell_angle_alpha   89.99363510
_cell_angle_beta   90.00007854
_cell_angle_gamma   89.99995249
_symmetry_Int_Tables_number   1
_chemical_formula_structural   Mn
_chemical_formula_sum   Mn2
_cell_volume   120.49021932
_cell_formula_units_Z   2
loop_
 _symmetry_equiv_pos_site_id
 _symmetry_equiv_pos_as_xyz
  1  'x, y, z'
loop_
 _atom_site_type_symbol
 _atom_site_label
 _atom_site_symmetry_multiplicity
 _atom_site_fract_x
 _atom_site_fract_y
 _atom_site_fract_z
 _atom_site_occupancy
  Mn  Mn0  1  0.49996300  0.49994950  0.99991600  1.0
  Mn  Mn1  1  0.50001200  0.00002150  0.50002050  1.0
