# generated using pymatgen
data_TbCu
_symmetry_space_group_name_H-M   'P 1'
_cell_length_a   5.37972204
_cell_length_b   5.37972204
_cell_length_c   5.37972204
_cell_angle_alpha   88.52400863
_cell_angle_beta   60.80511230
_cell_angle_gamma   119.10818318
_symmetry_Int_Tables_number   1
_chemical_formula_structural   TbCu
_chemical_formula_sum   'Tb2 Cu2'
_cell_volume   111.46602188
_cell_formula_units_Z   2
loop_
 _symmetry_equiv_pos_site_id
 _symmetry_equiv_pos_as_xyz
  1  'x, y, z'
loop_
 _atom_site_type_symbol
 _atom_site_label
 _atom_site_symmetry_multiplicity
 _atom_site_fract_x
 _atom_site_fract_y
 _atom_site_fract_z
 _atom_site_occupancy
  Tb  Tb0  1  0.25000000  0.37598800  0.87401200  1.0
  Tb  Tb1  1  0.75000000  0.62401200  0.12598800  1.0
  Cu  Cu2  1  0.00000000  0.50000000  0.50000000  1.0
  Cu  Cu3  1  0.50000000  0.00000000  0.50000000  1.0
