# generated using pymatgen
data_ErFe
_symmetry_space_group_name_H-M   'P 1'
_cell_length_a   5.29007630
_cell_length_b   5.29007630
_cell_length_c   8.67446200
_cell_angle_alpha   90.00000000
_cell_angle_beta   90.00000000
_cell_angle_gamma   119.02535649
_symmetry_Int_Tables_number   1
_chemical_formula_structural   ErFe
_chemical_formula_sum   'Er4 Fe4'
_cell_volume   212.26534039
_cell_formula_units_Z   4
loop_
 _symmetry_equiv_pos_site_id
 _symmetry_equiv_pos_as_xyz
  1  'x, y, z'
loop_
 _atom_site_type_symbol
 _atom_site_label
 _atom_site_symmetry_multiplicity
 _atom_site_fract_x
 _atom_site_fract_y
 _atom_site_fract_z
 _atom_site_occupancy
  Er  Er0  1  0.33337600  0.66666667  0.69637400  1.0
  Er  Er1  1  0.66920200  0.33079800  0.82408900  1.0
  Er  Er2  1  0.66920200  0.33079800  0.17591100  1.0
  Er  Er3  1  0.33337600  0.66666667  0.30362600  1.0
  Fe  Fe4  1  0.83292200  0.16707800  0.50000000  1.0
  Fe  Fe5  1  0.17862500  0.35328500  0.00000000  1.0
  Fe  Fe6  1  0.64671500  0.82137500  0.00000000  1.0
  Fe  Fe7  1  0.17292200  0.82707800  0.00000000  1.0
