# generated using pymatgen
data_Ti
_symmetry_space_group_name_H-M   'P 1'
_cell_length_a   6.49255500
_cell_length_b   10.70371500
_cell_length_c   12.98499400
_cell_angle_alpha   90.00000000
_cell_angle_beta   90.00000000
_cell_angle_gamma   90.00000000
_symmetry_Int_Tables_number   1
_chemical_formula_structural   Ti
_chemical_formula_sum   Ti8
_cell_volume   902.38512460
_cell_formula_units_Z   8
loop_
 _symmetry_equiv_pos_site_id
 _symmetry_equiv_pos_as_xyz
  1  'x, y, z'
loop_
 _atom_site_type_symbol
 _atom_site_label
 _atom_site_symmetry_multiplicity
 _atom_site_fract_x
 _atom_site_fract_y
 _atom_site_fract_z
 _atom_site_occupancy
  Ti  Ti0  1  0.76434300  0.75458300  0.74564900  1.0
  Ti  Ti1  1  0.23565700  0.25458300  0.25435100  1.0
  Ti  Ti2  1  0.73565700  0.75458300  0.24564900  1.0
  Ti  Ti3  1  0.26434300  0.25458300  0.75435100  1.0
  Ti  Ti4  1  0.99951900  0.50422300  0.87122600  1.0
  Ti  Ti5  1  0.00048100  0.00422300  0.12877400  1.0
  Ti  Ti6  1  0.50048100  0.50422300  0.37122600  1.0
  Ti  Ti7  1  0.49951900  0.00422300  0.62877400  1.0
