# generated using pymatgen
data_Fe
_symmetry_space_group_name_H-M   'P 1'
_cell_length_a   5.51238200
_cell_length_b   5.64158800
_cell_length_c   14.83404200
_cell_angle_alpha   90.00001788
_cell_angle_beta   90.00001812
_cell_angle_gamma   89.99979450
_symmetry_Int_Tables_number   1
_chemical_formula_structural   Fe
_chemical_formula_sum   Fe8
_cell_volume   461.31776265
_cell_formula_units_Z   8
loop_
 _symmetry_equiv_pos_site_id
 _symmetry_equiv_pos_as_xyz
  1  'x, y, z'
loop_
 _atom_site_type_symbol
 _atom_site_label
 _atom_site_symmetry_multiplicity
 _atom_site_fract_x
 _atom_site_fract_y
 _atom_site_fract_z
 _atom_site_occupancy
  Fe  Fe0  1  0.50000100  0.50005100  0.49999100  1.0
  Fe  Fe1  1  0.49996900  0.49996700  0.99999800  1.0
  Fe  Fe2  1  0.94631700  0.06435200  0.25000100  1.0
  Fe  Fe3  1  0.05366800  0.93562000  0.74999800  1.0
  Fe  Fe4  1  0.99999400  0.00002100  0.00001300  1.0
  Fe  Fe5  1  0.00002800  0.99998700  0.49999200  1.0
  Fe  Fe6  1  0.44630500  0.43567700  0.24999900  1.0
  Fe  Fe7  1  0.55370400  0.56432500  0.74999800  1.0
