# generated using pymatgen
data_Fe
_symmetry_space_group_name_H-M   'P 1'
_cell_length_a   6.03122200
_cell_length_b   6.50714129
_cell_length_c   6.53057505
_cell_angle_alpha   109.21267847
_cell_angle_beta   96.86839258
_cell_angle_gamma   103.21635777
_symmetry_Int_Tables_number   1
_chemical_formula_structural   Fe
_chemical_formula_sum   Fe4
_cell_volume   230.26178282
_cell_formula_units_Z   4
loop_
 _symmetry_equiv_pos_site_id
 _symmetry_equiv_pos_as_xyz
  1  'x, y, z'
loop_
 _atom_site_type_symbol
 _atom_site_label
 _atom_site_symmetry_multiplicity
 _atom_site_fract_x
 _atom_site_fract_y
 _atom_site_fract_z
 _atom_site_occupancy
  Fe  Fe0  1  0.66199200  0.20234800  0.65464400  1.0
  Fe  Fe1  1  0.00000000  0.00000000  0.50000000  1.0
  Fe  Fe2  1  0.33800800  0.79765200  0.34535600  1.0
  Fe  Fe3  1  0.00000000  0.50000000  0.00000000  1.0
