# generated using pymatgen
data_Eu
_symmetry_space_group_name_H-M   'P 1'
_cell_length_a   5.76006616
_cell_length_b   6.06291960
_cell_length_c   6.06291960
_cell_angle_alpha   78.09532045
_cell_angle_beta   73.12345684
_cell_angle_gamma   73.12345684
_symmetry_Int_Tables_number   1
_chemical_formula_structural   Eu
_chemical_formula_sum   Eu2
_cell_volume   192.16067490
_cell_formula_units_Z   2
loop_
 _symmetry_equiv_pos_site_id
 _symmetry_equiv_pos_as_xyz
  1  'x, y, z'
loop_
 _atom_site_type_symbol
 _atom_site_label
 _atom_site_symmetry_multiplicity
 _atom_site_fract_x
 _atom_site_fract_y
 _atom_site_fract_z
 _atom_site_occupancy
  Eu  Eu0  1  0.32965100  0.83450600  0.83450600  1.0
  Eu  Eu1  1  0.67034900  0.16549400  0.16549400  1.0
