# generated using pymatgen
data_V
_symmetry_space_group_name_H-M   'P 1'
_cell_length_a   7.05465800
_cell_length_b   7.39493305
_cell_length_c   16.48215100
_cell_angle_alpha   90.00000000
_cell_angle_beta   90.00000000
_cell_angle_gamma   115.99688563
_symmetry_Int_Tables_number   1
_chemical_formula_structural   V
_chemical_formula_sum   V12
_cell_volume   772.85104676
_cell_formula_units_Z   12
loop_
 _symmetry_equiv_pos_site_id
 _symmetry_equiv_pos_as_xyz
  1  'x, y, z'
loop_
 _atom_site_type_symbol
 _atom_site_label
 _atom_site_symmetry_multiplicity
 _atom_site_fract_x
 _atom_site_fract_y
 _atom_site_fract_z
 _atom_site_occupancy
  V  V0  1  0.24979300  0.22031500  0.75437700  1.0
  V  V1  1  0.25023200  0.00001600  0.15954000  1.0
  V  V2  1  0.24994900  0.99928400  0.57908300  1.0
  V  V3  1  0.24979300  0.72031500  0.74562300  1.0
  V  V4  1  0.24994900  0.49928400  0.92091700  1.0
  V  V5  1  0.25023200  0.50001600  0.34046000  1.0
  V  V6  1  0.75020700  0.27968500  0.25437700  1.0
  V  V7  1  0.75005100  0.00071600  0.42091700  1.0
  V  V8  1  0.74976800  0.99998400  0.84046000  1.0
  V  V9  1  0.75020700  0.77968500  0.24562300  1.0
  V  V10  1  0.74976800  0.49998400  0.65954000  1.0
  V  V11  1  0.75005100  0.50071600  0.07908300  1.0
