# generated using pymatgen
data_V
_symmetry_space_group_name_H-M   'P 1'
_cell_length_a   5.84071300
_cell_length_b   5.84731000
_cell_length_c   8.71827100
_cell_angle_alpha   90.00000000
_cell_angle_beta   90.00000000
_cell_angle_gamma   90.00000000
_symmetry_Int_Tables_number   1
_chemical_formula_structural   V
_chemical_formula_sum   V8
_cell_volume   297.75039752
_cell_formula_units_Z   8
loop_
 _symmetry_equiv_pos_site_id
 _symmetry_equiv_pos_as_xyz
  1  'x, y, z'
loop_
 _atom_site_type_symbol
 _atom_site_label
 _atom_site_symmetry_multiplicity
 _atom_site_fract_x
 _atom_site_fract_y
 _atom_site_fract_z
 _atom_site_occupancy
  V  V0  1  0.00000000  0.00000000  0.00000000  1.0
  V  V1  1  0.50000000  0.00000000  0.00000000  1.0
  V  V2  1  0.74486900  0.73988800  0.75079500  1.0
  V  V3  1  0.74486900  0.26011200  0.24920500  1.0
  V  V4  1  0.00000000  0.50000000  0.50000000  1.0
  V  V5  1  0.25513100  0.73988800  0.24920500  1.0
  V  V6  1  0.25513100  0.26011200  0.75079500  1.0
  V  V7  1  0.50000000  0.00000000  0.50000000  1.0
