# generated using pymatgen
data_V
_symmetry_space_group_name_H-M   'P 1'
_cell_length_a   4.03679771
_cell_length_b   4.25427617
_cell_length_c   5.26010206
_cell_angle_alpha   113.80715037
_cell_angle_beta   112.54996452
_cell_angle_gamma   90.00926345
_symmetry_Int_Tables_number   1
_chemical_formula_structural   V
_chemical_formula_sum   V2
_cell_volume   75.03504114
_cell_formula_units_Z   2
loop_
 _symmetry_equiv_pos_site_id
 _symmetry_equiv_pos_as_xyz
  1  'x, y, z'
loop_
 _atom_site_type_symbol
 _atom_site_label
 _atom_site_symmetry_multiplicity
 _atom_site_fract_x
 _atom_site_fract_y
 _atom_site_fract_z
 _atom_site_occupancy
  V  V0  1  0.87965500  0.88660800  0.26378200  1.0
  V  V1  1  0.11920200  0.62445100  0.73819800  1.0
