# generated using pymatgen
data_V
_symmetry_space_group_name_H-M   'P 1'
_cell_length_a   5.16166200
_cell_length_b   5.21547694
_cell_length_c   7.90439428
_cell_angle_alpha   71.09843051
_cell_angle_beta   71.10228306
_cell_angle_gamma   80.63913584
_symmetry_Int_Tables_number   1
_chemical_formula_structural   V
_chemical_formula_sum   V5
_cell_volume   190.06816886
_cell_formula_units_Z   5
loop_
 _symmetry_equiv_pos_site_id
 _symmetry_equiv_pos_as_xyz
  1  'x, y, z'
loop_
 _atom_site_type_symbol
 _atom_site_label
 _atom_site_symmetry_multiplicity
 _atom_site_fract_x
 _atom_site_fract_y
 _atom_site_fract_z
 _atom_site_occupancy
  V  V0  1  0.50000000  0.00000000  0.00000000  1.0
  V  V1  1  0.00425900  0.90136200  0.69192000  1.0
  V  V2  1  0.99509500  0.68955500  0.11377200  1.0
  V  V3  1  0.00490500  0.31044500  0.88622800  1.0
  V  V4  1  0.99574100  0.09863800  0.30808000  1.0
