# generated using pymatgen
data_V
_symmetry_space_group_name_H-M   'P 1'
_cell_length_a   2.97104743
_cell_length_b   2.98753151
_cell_length_c   5.19367198
_cell_angle_alpha   73.99643572
_cell_angle_beta   73.38026030
_cell_angle_gamma   60.18269055
_symmetry_Int_Tables_number   1
_chemical_formula_structural   V
_chemical_formula_sum   V1
_cell_volume   37.82858051
_cell_formula_units_Z   1
loop_
 _symmetry_equiv_pos_site_id
 _symmetry_equiv_pos_as_xyz
  1  'x, y, z'
loop_
 _atom_site_type_symbol
 _atom_site_label
 _atom_site_symmetry_multiplicity
 _atom_site_fract_x
 _atom_site_fract_y
 _atom_site_fract_z
 _atom_site_occupancy
  V  V0  1  0.49999800  0.50000400  0.50000100  1.0
