# generated using pymatgen
data_V
_symmetry_space_group_name_H-M   'P 1'
_cell_length_a   5.94376385
_cell_length_b   5.97993997
_cell_length_c   5.98074265
_cell_angle_alpha   88.36788425
_cell_angle_beta   60.76505518
_cell_angle_gamma   60.70147938
_symmetry_Int_Tables_number   1
_chemical_formula_structural   V
_chemical_formula_sum   V4
_cell_volume   155.45708081
_cell_formula_units_Z   4
loop_
 _symmetry_equiv_pos_site_id
 _symmetry_equiv_pos_as_xyz
  1  'x, y, z'
loop_
 _atom_site_type_symbol
 _atom_site_label
 _atom_site_symmetry_multiplicity
 _atom_site_fract_x
 _atom_site_fract_y
 _atom_site_fract_z
 _atom_site_occupancy
  V  V0  1  0.50001300  0.99998600  0.49999600  1.0
  V  V1  1  0.49999300  0.50000600  0.49999800  1.0
  V  V2  1  0.99999900  0.50000900  0.00000400  1.0
  V  V3  1  0.00002200  0.49996300  0.49998900  1.0
