# generated using pymatgen
data_V
_symmetry_space_group_name_H-M   'P 1'
_cell_length_a   2.94595588
_cell_length_b   2.94637290
_cell_length_c   5.20662172
_cell_angle_alpha   74.48503828
_cell_angle_beta   74.47352367
_cell_angle_gamma   60.98226801
_symmetry_Int_Tables_number   1
_chemical_formula_structural   V
_chemical_formula_sum   V1
_cell_volume   37.56606797
_cell_formula_units_Z   1
loop_
 _symmetry_equiv_pos_site_id
 _symmetry_equiv_pos_as_xyz
  1  'x, y, z'
loop_
 _atom_site_type_symbol
 _atom_site_label
 _atom_site_symmetry_multiplicity
 _atom_site_fract_x
 _atom_site_fract_y
 _atom_site_fract_z
 _atom_site_occupancy
  V  V0  1  0.49983225  0.50013275  0.50003675  1.0
