# generated using pymatgen
data_V
_symmetry_space_group_name_H-M   'P 1'
_cell_length_a   2.95196843
_cell_length_b   2.97667834
_cell_length_c   10.09701915
_cell_angle_alpha   89.96821042
_cell_angle_beta   89.93467259
_cell_angle_gamma   60.27341620
_symmetry_Int_Tables_number   1
_chemical_formula_structural   V
_chemical_formula_sum   V2
_cell_volume   77.04724222
_cell_formula_units_Z   2
loop_
 _symmetry_equiv_pos_site_id
 _symmetry_equiv_pos_as_xyz
  1  'x, y, z'
loop_
 _atom_site_type_symbol
 _atom_site_label
 _atom_site_symmetry_multiplicity
 _atom_site_fract_x
 _atom_site_fract_y
 _atom_site_fract_z
 _atom_site_occupancy
  V  V0  1  0.66528800  0.66868900  0.50028150  1.0
  V  V1  1  0.33399900  0.33131100  0.00030900  1.0
