# generated using pymatgen
data_Er3Cu4
_symmetry_space_group_name_H-M   'P 1'
_cell_length_a   4.45335000
_cell_length_b   6.93574545
_cell_length_c   8.38307996
_cell_angle_alpha   114.05488085
_cell_angle_beta   105.40352218
_cell_angle_gamma   90.00000000
_symmetry_Int_Tables_number   1
_chemical_formula_structural   Er3Cu4
_chemical_formula_sum   'Er3 Cu4'
_cell_volume   226.22031033
_cell_formula_units_Z   1
loop_
 _symmetry_equiv_pos_site_id
 _symmetry_equiv_pos_as_xyz
  1  'x, y, z'
loop_
 _atom_site_type_symbol
 _atom_site_label
 _atom_site_symmetry_multiplicity
 _atom_site_fract_x
 _atom_site_fract_y
 _atom_site_fract_z
 _atom_site_occupancy
  Er  Er0  1  0.00000000  0.00000000  0.00000000  1.0
  Er  Er1  1  0.86977700  0.36004200  0.73955400  1.0
  Er  Er2  1  0.13022300  0.63995800  0.26044600  1.0
  Cu  Cu3  1  0.66288500  0.97975700  0.32577000  1.0
  Cu  Cu4  1  0.33711500  0.02024300  0.67423000  1.0
  Cu  Cu5  1  0.67887500  0.36902300  0.35775000  1.0
  Cu  Cu6  1  0.32112500  0.63097700  0.64225000  1.0
