# generated using pymatgen
data_Mn
_symmetry_space_group_name_H-M   'P 1'
_cell_length_a   3.77144800
_cell_length_b   4.35304789
_cell_length_c   3.77144800
_cell_angle_alpha   64.32942644
_cell_angle_beta   90.00000000
_cell_angle_gamma   115.67057355
_symmetry_Int_Tables_number   1
_chemical_formula_structural   Mn
_chemical_formula_sum   Mn3
_cell_volume   48.93720917
_cell_formula_units_Z   3
loop_
 _symmetry_equiv_pos_site_id
 _symmetry_equiv_pos_as_xyz
  1  'x, y, z'
loop_
 _atom_site_type_symbol
 _atom_site_label
 _atom_site_symmetry_multiplicity
 _atom_site_fract_x
 _atom_site_fract_y
 _atom_site_fract_z
 _atom_site_occupancy
  Mn  Mn0  1  0.75000000  0.50000000  0.75000000  1.0
  Mn  Mn1  1  0.25000000  0.50000000  0.25000000  1.0
  Mn  Mn2  1  0.50000000  0.00000000  0.50000000  1.0
