# generated using pymatgen
data_Mn
_symmetry_space_group_name_H-M   'P 1'
_cell_length_a   5.53172500
_cell_length_b   5.66080100
_cell_length_c   16.38238200
_cell_angle_alpha   90.00000000
_cell_angle_beta   90.00000000
_cell_angle_gamma   90.00000000
_symmetry_Int_Tables_number   1
_chemical_formula_structural   Mn
_chemical_formula_sum   Mn8
_cell_volume   512.99781840
_cell_formula_units_Z   8
loop_
 _symmetry_equiv_pos_site_id
 _symmetry_equiv_pos_as_xyz
  1  'x, y, z'
loop_
 _atom_site_type_symbol
 _atom_site_label
 _atom_site_symmetry_multiplicity
 _atom_site_fract_x
 _atom_site_fract_y
 _atom_site_fract_z
 _atom_site_occupancy
  Mn  Mn0  1  0.24988000  0.50100600  0.74971000  1.0
  Mn  Mn1  1  0.74988000  0.99899400  0.25029000  1.0
  Mn  Mn2  1  0.25012000  0.49899400  0.24971000  1.0
  Mn  Mn3  1  0.75012000  0.00100600  0.75029000  1.0
  Mn  Mn4  1  0.20632000  0.44361500  0.49988700  1.0
  Mn  Mn5  1  0.70632000  0.05638500  0.50011300  1.0
  Mn  Mn6  1  0.29368000  0.55638500  0.99988700  1.0
  Mn  Mn7  1  0.79368000  0.94361500  0.00011300  1.0
