# generated using pymatgen
data_VCu
_symmetry_space_group_name_H-M   'P 1'
_cell_length_a   5.64704400
_cell_length_b   6.16601131
_cell_length_c   5.69600000
_cell_angle_alpha   117.50893445
_cell_angle_beta   90.00000000
_cell_angle_gamma   117.25278303
_symmetry_Int_Tables_number   1
_chemical_formula_structural   VCu
_chemical_formula_sum   'V2 Cu2'
_cell_volume   150.65133646
_cell_formula_units_Z   2
loop_
 _symmetry_equiv_pos_site_id
 _symmetry_equiv_pos_as_xyz
  1  'x, y, z'
loop_
 _atom_site_type_symbol
 _atom_site_label
 _atom_site_symmetry_multiplicity
 _atom_site_fract_x
 _atom_site_fract_y
 _atom_site_fract_z
 _atom_site_occupancy
  V  V0  1  0.50000000  0.00000000  0.50000000  1.0
  V  V1  1  0.50000000  1.00000000  0.00000000  1.0
  Cu  Cu2  1  0.50000000  0.50000000  0.50000000  1.0
  Cu  Cu3  1  0.00000000  0.50000000  0.50000000  1.0
