# generated using pymatgen
data_Mn2CuO4
_symmetry_space_group_name_H-M   'P 1'
_cell_length_a   6.05905117
_cell_length_b   6.05905190
_cell_length_c   18.13023639
_cell_angle_alpha   59.91436019
_cell_angle_beta   59.91435583
_cell_angle_gamma   59.99999467
_symmetry_Int_Tables_number   1
_chemical_formula_structural   Mn2CuO4
_chemical_formula_sum   'Mn12 Cu6 O24'
_cell_volume   470.03948885
_cell_formula_units_Z   6
loop_
 _symmetry_equiv_pos_site_id
 _symmetry_equiv_pos_as_xyz
  1  'x, y, z'
loop_
 _atom_site_type_symbol
 _atom_site_label
 _atom_site_symmetry_multiplicity
 _atom_site_fract_x
 _atom_site_fract_y
 _atom_site_fract_z
 _atom_site_occupancy
  Mn  Mn0  1  0.00229400  0.00229400  0.99770600  1
  Mn  Mn1  1  0.12698300  0.62390100  0.20840500  1
  Mn  Mn2  1  0.62390100  0.12698300  0.20840500  1
  Mn  Mn3  1  0.00279800  0.00279800  0.33053500  1
  Mn  Mn4  1  0.62390100  0.62390100  0.20840500  1
  Mn  Mn5  1  0.12717000  0.62326800  0.54209900  1
  Mn  Mn6  1  0.62326800  0.12717000  0.54209900  1
  Mn  Mn7  1  0.62326800  0.62326800  0.54209900  1
  Mn  Mn8  1  0.12562200  0.62643500  0.87383600  1
  Mn  Mn9  1  0.62643500  0.12562200  0.87383600  1
  Mn  Mn10  1  0.62602100  0.62602100  0.70731200  1
  Mn  Mn11  1  0.62643500  0.62643500  0.87383600  1
  Cu  Cu12  1  0.24881800  0.24881800  0.08451500  1
  Cu  Cu13  1  0.24705000  0.24705000  0.41961700  1
  Cu  Cu14  1  0.62476800  0.62476800  0.04189900  1
  Cu  Cu15  1  0.24976100  0.24976100  0.75023900  1
  Cu  Cu16  1  0.62367900  0.62367900  0.37632100  1
  Cu  Cu17  1  0.00025900  0.00025900  0.66640800  1
  O  O18  1  0.38050100  0.38050100  0.13402100  1
  O  O19  1  0.38050100  0.83693400  0.13402100  1
  O  O20  1  0.38070800  0.38070800  0.28595900  1
  O  O21  1  0.37960600  0.37960600  0.46759200  1
  O  O22  1  0.41575100  0.86769800  0.28295100  1
  O  O23  1  0.83693400  0.38050100  0.13402100  1
  O  O24  1  0.86601000  0.86601000  0.13399000  1
  O  O25  1  0.37960600  0.83800900  0.46759200  1
  O  O26  1  0.86769800  0.41575100  0.28295100  1
  O  O27  1  0.38319400  0.38319400  0.61680600  1
  O  O28  1  0.38596500  0.38596500  0.79685100  1
  O  O29  1  0.41153400  0.86462200  0.61974100  1
  O  O30  1  0.86769800  0.86769800  0.28295100  1
  O  O31  1  0.83800900  0.37960600  0.46759200  1
  O  O32  1  0.86388400  0.86388400  0.46944900  1
  O  O33  1  0.38596500  0.83751800  0.79685100  1
  O  O34  1  0.86462200  0.41153400  0.61974100  1
  O  O35  1  0.38293700  0.38293700  0.95039600  1
  O  O36  1  0.83751800  0.38596500  0.79685100  1
  O  O37  1  0.86462200  0.86462200  0.61974100  1
  O  O38  1  0.41562400  0.87020200  0.94799000  1
  O  O39  1  0.86828000  0.86828000  0.79838700  1
  O  O40  1  0.87020200  0.41562400  0.94799000  1
  O  O41  1  0.87020200  0.87020200  0.94799000  1
