# generated using pymatgen
data_Mn2Cu
_symmetry_space_group_name_H-M   'P 1'
_cell_length_a   5.96695800
_cell_length_b   6.13410916
_cell_length_c   29.51957321
_cell_angle_alpha   92.55870059
_cell_angle_beta   90.00000000
_cell_angle_gamma   119.10261571
_symmetry_Int_Tables_number   1
_chemical_formula_structural   Mn2Cu
_chemical_formula_sum   'Mn24 Cu12'
_cell_volume   942.83162345
_cell_formula_units_Z   12
loop_
 _symmetry_equiv_pos_site_id
 _symmetry_equiv_pos_as_xyz
  1  'x, y, z'
loop_
 _atom_site_type_symbol
 _atom_site_label
 _atom_site_symmetry_multiplicity
 _atom_site_fract_x
 _atom_site_fract_y
 _atom_site_fract_z
 _atom_site_occupancy
  Mn  Mn0  1  0.99549900  0.99099800  0.00050500  1.0
  Mn  Mn1  1  0.16761600  0.83245700  0.89570300  1.0
  Mn  Mn2  1  0.66484100  0.83245700  0.89570300  1.0
  Mn  Mn3  1  0.33357800  0.66715600  0.97829600  1.0
  Mn  Mn4  1  0.83148400  0.16351900  0.72960200  1.0
  Mn  Mn5  1  0.99879800  0.99759600  0.81206900  1.0
  Mn  Mn6  1  0.00963000  0.01926000  0.62231400  1.0
  Mn  Mn7  1  0.66090600  0.32181200  0.83478200  1.0
  Mn  Mn8  1  0.33203500  0.16351900  0.72960200  1.0
  Mn  Mn9  1  0.50027100  0.50029900  0.56268000  1.0
  Mn  Mn10  1  0.32277800  0.64555600  0.66996900  1.0
  Mn  Mn11  1  0.00002800  0.50029900  0.56268000  1.0
  Mn  Mn12  1  0.67611200  0.35222400  0.45542200  1.0
  Mn  Mn13  1  0.16667600  0.83334267  0.39584500  1.0
  Mn  Mn14  1  0.34274400  0.68548800  0.28868200  1.0
  Mn  Mn15  1  0.66666667  0.83334267  0.39584500  1.0
  Mn  Mn16  1  0.99062600  0.98125200  0.50303700  1.0
  Mn  Mn17  1  0.83295000  0.16667700  0.22927200  1.0
  Mn  Mn18  1  0.65722500  0.31445000  0.33637900  1.0
  Mn  Mn19  1  0.33372700  0.16667700  0.22927200  1.0
  Mn  Mn20  1  0.01147800  0.02295600  0.12307900  1.0
  Mn  Mn21  1  0.50355800  0.50389600  0.06209900  1.0
  Mn  Mn22  1  0.32390400  0.64780800  0.16911800  1.0
  Mn  Mn23  1  0.00033800  0.50389600  0.06209900  1.0
  Cu  Cu24  1  0.67126400  0.34252800  0.95800800  1.0
  Cu  Cu25  1  0.33723100  0.67446200  0.79099300  1.0
  Cu  Cu26  1  0.16580400  0.33160800  0.89578800  1.0
  Cu  Cu27  1  0.83238000  0.66476000  0.72907600  1.0
  Cu  Cu28  1  0.66575800  0.33151600  0.64635000  1.0
  Cu  Cu29  1  0.50010800  0.00021600  0.56257900  1.0
  Cu  Cu30  1  0.33333333  0.66666667  0.47922100  1.0
  Cu  Cu31  1  0.16663000  0.33326000  0.39584300  1.0
  Cu  Cu32  1  0.99995100  0.99990200  0.31250400  1.0
  Cu  Cu33  1  0.83299800  0.66599600  0.22920100  1.0
  Cu  Cu34  1  0.66695400  0.33390800  0.14549800  1.0
  Cu  Cu35  1  0.50029900  0.00059800  0.06272900  1.0
