# generated using pymatgen
data_Mn2Cu
_symmetry_space_group_name_H-M   'P 1'
_cell_length_a   6.05905190
_cell_length_b   6.05905105
_cell_length_c   14.78408476
_cell_angle_alpha   90.00000604
_cell_angle_beta   89.99999491
_cell_angle_gamma   120.00000331
_symmetry_Int_Tables_number   1
_chemical_formula_structural   Mn2Cu
_chemical_formula_sum   'Mn12 Cu6'
_cell_volume   470.03948832
_cell_formula_units_Z   6
loop_
 _symmetry_equiv_pos_site_id
 _symmetry_equiv_pos_as_xyz
  1  'x, y, z'
loop_
 _atom_site_type_symbol
 _atom_site_label
 _atom_site_symmetry_multiplicity
 _atom_site_fract_x
 _atom_site_fract_y
 _atom_site_fract_z
 _atom_site_occupancy
  Mn  Mn0  1  0.00000000  0.00000000  0.00229400  1.0
  Mn  Mn1  1  0.16769400  0.33538800  0.79159500  1.0
  Mn  Mn2  1  0.16769400  0.83230600  0.79159500  1.0
  Mn  Mn3  1  0.66666600  0.33333300  0.66946500  1.0
  Mn  Mn4  1  0.66461200  0.83230600  0.79159500  1.0
  Mn  Mn5  1  0.83463600  0.66926900  0.45790100  1.0
  Mn  Mn6  1  0.83463600  0.16536700  0.45790100  1.0
  Mn  Mn7  1  0.33073400  0.16536700  0.45790100  1.0
  Mn  Mn8  1  0.49972900  0.99945800  0.12616400  1.0
  Mn  Mn9  1  0.49972900  0.50027100  0.12616400  1.0
  Mn  Mn10  1  0.66666600  0.33333300  0.29268800  1.0
  Mn  Mn11  1  0.00054200  0.50027100  0.12616400  1.0
  Cu  Cu12  1  0.66666600  0.33333300  0.91548500  1.0
  Cu  Cu13  1  0.33333400  0.66666700  0.58038300  1.0
  Cu  Cu14  1  0.33333400  0.66666700  0.95810100  1.0
  Cu  Cu15  1  0.00000000  0.00000000  0.24976100  1.0
  Cu  Cu16  1  0.00000000  0.00000000  0.62367900  1.0
  Cu  Cu17  1  0.33333400  0.66666700  0.33359200  1.0
