# generated using pymatgen
data_Mn2Cu
_symmetry_space_group_name_H-M   'P 1'
_cell_length_a   5.95842073
_cell_length_b   5.95840414
_cell_length_c   5.95877906
_cell_angle_alpha   118.41042392
_cell_angle_beta   118.42067651
_cell_angle_gamma   92.76361378
_symmetry_Int_Tables_number   1
_chemical_formula_structural   Mn2Cu
_chemical_formula_sum   'Mn4 Cu2'
_cell_volume   152.98455891
_cell_formula_units_Z   2
loop_
 _symmetry_equiv_pos_site_id
 _symmetry_equiv_pos_as_xyz
  1  'x, y, z'
loop_
 _atom_site_type_symbol
 _atom_site_label
 _atom_site_symmetry_multiplicity
 _atom_site_fract_x
 _atom_site_fract_y
 _atom_site_fract_z
 _atom_site_occupancy
  Mn  Mn0  1  0.00002500  0.00006000  0.50003300  1.0
  Mn  Mn1  1  0.00002600  0.49999200  0.99996400  1.0
  Mn  Mn2  1  0.00001200  0.49997400  0.50003800  1.0
  Mn  Mn3  1  0.49994000  0.49997500  0.99996500  1.0
  Cu  Cu4  1  0.37480000  0.12479900  0.24999800  1.0
  Cu  Cu5  1  0.62517900  0.87518100  0.75000200  1.0
