# generated using pymatgen
data_Mn2Cu
_symmetry_space_group_name_H-M   'P 1'
_cell_length_a   5.80984031
_cell_length_b   6.19400144
_cell_length_c   5.91693113
_cell_angle_alpha   61.46900756
_cell_angle_beta   89.99999929
_cell_angle_gamma   117.96871304
_symmetry_Int_Tables_number   1
_chemical_formula_structural   Mn2Cu
_chemical_formula_sum   'Mn4 Cu2'
_cell_volume   158.18597945
_cell_formula_units_Z   2
loop_
 _symmetry_equiv_pos_site_id
 _symmetry_equiv_pos_as_xyz
  1  'x, y, z'
loop_
 _atom_site_type_symbol
 _atom_site_label
 _atom_site_symmetry_multiplicity
 _atom_site_fract_x
 _atom_site_fract_y
 _atom_site_fract_z
 _atom_site_occupancy
  Mn  Mn0  1  0.02397900  0.04795800  0.97602100  1.0
  Mn  Mn1  1  0.72602100  0.45204200  0.77397900  1.0
  Mn  Mn2  1  0.37500000  0.75000000  0.37500000  1.0
  Mn  Mn3  1  0.37500000  0.75000000  0.87500000  1.0
  Cu  Cu4  1  0.37500000  0.25000000  0.37500000  1.0
  Cu  Cu5  1  0.87500000  0.25000000  0.37500000  1.0
