# generated using pymatgen
data_Mn2Cu
_symmetry_space_group_name_H-M   'P 1'
_cell_length_a   5.88441794
_cell_length_b   6.07912438
_cell_length_c   5.91299828
_cell_angle_alpha   60.77428453
_cell_angle_beta   89.73603689
_cell_angle_gamma   61.11203699
_symmetry_Int_Tables_number   1
_chemical_formula_structural   Mn2Cu
_chemical_formula_sum   'Mn4 Cu2'
_cell_volume   154.04417527
_cell_formula_units_Z   2
loop_
 _symmetry_equiv_pos_site_id
 _symmetry_equiv_pos_as_xyz
  1  'x, y, z'
loop_
 _atom_site_type_symbol
 _atom_site_label
 _atom_site_symmetry_multiplicity
 _atom_site_fract_x
 _atom_site_fract_y
 _atom_site_fract_z
 _atom_site_occupancy
  Mn  Mn0  1  0.50004100  0.99993100  0.50004700  1.0
  Mn  Mn1  1  0.49997500  0.50005600  0.50007800  1.0
  Mn  Mn2  1  0.00009800  0.99999000  0.49999300  1.0
  Mn  Mn3  1  0.50001300  0.50004800  0.99985200  1.0
  Cu  Cu4  1  0.87189400  0.75385700  0.12306200  1.0
  Cu  Cu5  1  0.12809300  0.24633500  0.87682500  1.0
