# generated using pymatgen
data_Mn2Cu
_symmetry_space_group_name_H-M   'P 1'
_cell_length_a   6.00036200
_cell_length_b   6.02532167
_cell_length_c   24.80019031
_cell_angle_alpha   83.80073042
_cell_angle_beta   83.05167533
_cell_angle_gamma   60.13693722
_symmetry_Int_Tables_number   1
_chemical_formula_structural   Mn2Cu
_chemical_formula_sum   'Mn20 Cu10'
_cell_volume   770.67351115
_cell_formula_units_Z   10
loop_
 _symmetry_equiv_pos_site_id
 _symmetry_equiv_pos_as_xyz
  1  'x, y, z'
loop_
 _atom_site_type_symbol
 _atom_site_label
 _atom_site_symmetry_multiplicity
 _atom_site_fract_x
 _atom_site_fract_y
 _atom_site_fract_z
 _atom_site_occupancy
  Mn  Mn0  1  0.00447700  0.99131400  0.99973200  1.0
  Mn  Mn1  1  0.40451000  0.39145500  0.79952500  1.0
  Mn  Mn2  1  0.87364000  0.87431800  0.87518400  1.0
  Mn  Mn3  1  0.37685800  0.87431800  0.87518400  1.0
  Mn  Mn4  1  0.80458000  0.79144500  0.59939500  1.0
  Mn  Mn5  1  0.67487500  0.67546300  0.97478700  1.0
  Mn  Mn6  1  0.27367600  0.27412000  0.67516300  1.0
  Mn  Mn7  1  0.07513400  0.07509600  0.77463600  1.0
  Mn  Mn8  1  0.77704100  0.27412000  0.67516300  1.0
  Mn  Mn9  1  0.20395000  0.19178300  0.40031700  1.0
  Mn  Mn10  1  0.67352300  0.67401700  0.47514200  1.0
  Mn  Mn11  1  0.17731800  0.67401700  0.47514200  1.0
  Mn  Mn12  1  0.47527600  0.47493600  0.57451200  1.0
  Mn  Mn13  1  0.07372900  0.07509900  0.27416000  1.0
  Mn  Mn14  1  0.87821600  0.86928300  0.37428500  1.0
  Mn  Mn15  1  0.57701200  0.07509900  0.27416000  1.0
  Mn  Mn16  1  0.07431400  0.57702800  0.27434400  1.0
  Mn  Mn17  1  0.47504700  0.47408300  0.07596100  1.0
  Mn  Mn18  1  0.27268900  0.27990200  0.17472000  1.0
  Mn  Mn19  1  0.97490900  0.47408300  0.07596100  1.0
  Cu  Cu20  1  0.34731600  0.35440400  0.95096400  1.0
  Cu  Cu21  1  0.74748300  0.75473700  0.75029700  1.0
  Cu  Cu22  1  0.87405600  0.37668500  0.87520300  1.0
  Cu  Cu23  1  0.14730300  0.15500700  0.55038700  1.0
  Cu  Cu24  1  0.27434800  0.77618200  0.67512200  1.0
  Cu  Cu25  1  0.55107300  0.54760500  0.35024900  1.0
  Cu  Cu26  1  0.59904900  0.60299800  0.19890400  1.0
  Cu  Cu27  1  0.67482700  0.17546100  0.47488500  1.0
  Cu  Cu28  1  0.94801500  0.95426100  0.14970900  1.0
  Cu  Cu29  1  0.47417800  0.97552300  0.07612100  1.0
