# generated using pymatgen
data_CoW
_symmetry_space_group_name_H-M   'P 1'
_cell_length_a   5.59481805
_cell_length_b   5.59457402
_cell_length_c   5.71911668
_cell_angle_alpha   60.72279362
_cell_angle_beta   60.72505428
_cell_angle_gamma   89.99881138
_symmetry_Int_Tables_number   1
_chemical_formula_structural   CoW
_chemical_formula_sum   'Co1 W1'
_cell_volume   129.30215349
_cell_formula_units_Z   1
loop_
 _symmetry_equiv_pos_site_id
 _symmetry_equiv_pos_as_xyz
  1  'x, y, z'
loop_
 _atom_site_type_symbol
 _atom_site_label
 _atom_site_symmetry_multiplicity
 _atom_site_fract_x
 _atom_site_fract_y
 _atom_site_fract_z
 _atom_site_occupancy
  Co  Co0  1  0.50000050  0.49999900  0.00000050  1.0
  W  W1  1  0.99999700  0.00000750  0.99999600  1.0
