# generated using pymatgen
data_CeRh
_symmetry_space_group_name_H-M   'P 1'
_cell_length_a   4.41857200
_cell_length_b   5.87011765
_cell_length_c   6.05789833
_cell_angle_alpha   74.66047858
_cell_angle_beta   68.61117853
_cell_angle_gamma   67.89151614
_symmetry_Int_Tables_number   1
_chemical_formula_structural   CeRh
_chemical_formula_sum   'Ce2 Rh2'
_cell_volume   134.06425610
_cell_formula_units_Z   2
loop_
 _symmetry_equiv_pos_site_id
 _symmetry_equiv_pos_as_xyz
  1  'x, y, z'
loop_
 _atom_site_type_symbol
 _atom_site_label
 _atom_site_symmetry_multiplicity
 _atom_site_fract_x
 _atom_site_fract_y
 _atom_site_fract_z
 _atom_site_occupancy
  Ce  Ce0  1  0.56307300  0.20630400  0.66755000  1.0
  Ce  Ce1  1  0.43692700  0.79369600  0.33245000  1.0
  Rh  Rh2  1  0.16481200  0.36421700  0.30615900  1.0
  Rh  Rh3  1  0.83518800  0.63578300  0.69384100  1.0
