# generated using pymatgen
data_Co
_symmetry_space_group_name_H-M   'P 1'
_cell_length_a   10.34004735
_cell_length_b   10.51729425
_cell_length_c   11.11235024
_cell_angle_alpha   91.79972233
_cell_angle_beta   92.76085152
_cell_angle_gamma   97.38570876
_symmetry_Int_Tables_number   1
_chemical_formula_structural   Co
_chemical_formula_sum   Co30
_cell_volume   1196.18061583
_cell_formula_units_Z   30
loop_
 _symmetry_equiv_pos_site_id
 _symmetry_equiv_pos_as_xyz
  1  'x, y, z'
loop_
 _atom_site_type_symbol
 _atom_site_label
 _atom_site_symmetry_multiplicity
 _atom_site_fract_x
 _atom_site_fract_y
 _atom_site_fract_z
 _atom_site_occupancy
  Co  Co0  1  0.03823131  0.59604925  0.10522937  1.0
  Co  Co1  1  0.43651121  0.27284995  0.82653410  1.0
  Co  Co2  1  0.96077134  0.42524715  0.42069310  1.0
  Co  Co3  1  0.67595978  0.21743865  0.89638752  1.0
  Co  Co4  1  0.61948707  0.15782086  0.35120610  1.0
  Co  Co5  1  0.47853459  0.94844939  0.89674592  1.0
  Co  Co6  1  0.73772005  0.71316619  0.09945950  1.0
  Co  Co7  1  0.02185016  0.19568769  0.90823385  1.0
  Co  Co8  1  0.75501506  0.86985137  0.49243201  1.0
  Co  Co9  1  0.22228999  0.60513921  0.54855151  1.0
  Co  Co10  1  0.99015762  0.77809196  0.67309887  1.0
  Co  Co11  1  0.97342221  0.84930519  0.24461107  1.0
  Co  Co12  1  0.79883708  0.93192663  0.81265071  1.0
  Co  Co13  1  0.13444287  0.91399108  0.49336398  1.0
  Co  Co14  1  0.13057111  0.12580860  0.69048177  1.0
  Co  Co15  1  0.25636822  0.10743438  0.97898218  1.0
  Co  Co16  1  0.61148859  0.49465793  0.98207140  1.0
  Co  Co17  1  0.54632087  0.42909329  0.23766472  1.0
  Co  Co18  1  0.43559060  0.09563779  0.61358234  1.0
  Co  Co19  1  0.80261781  0.56563325  0.56663141  1.0
  Co  Co20  1  0.45828110  0.63548521  0.80343692  1.0
  Co  Co21  1  0.66980542  0.92637428  0.27735524  1.0
  Co  Co22  1  0.37048211  0.83380104  0.59372971  1.0
  Co  Co23  1  0.27586350  0.75501813  0.29747401  1.0
  Co  Co24  1  0.25331211  0.35973019  0.09023199  1.0
  Co  Co25  1  0.94876711  0.12466697  0.30658810  1.0
  Co  Co26  1  0.99563763  0.42607056  0.70088875  1.0
  Co  Co27  1  0.80330921  0.33756583  0.16112464  1.0
  Co  Co28  1  0.71300439  0.24628346  0.61623383  1.0
  Co  Co29  1  0.32642610  0.78577612  0.05243256  1.0
