# generated using pymatgen
data_Co
_symmetry_space_group_name_H-M   'P 1'
_cell_length_a   10.38441456
_cell_length_b   10.64408271
_cell_length_c   10.71109132
_cell_angle_alpha   86.85424010
_cell_angle_beta   89.37578931
_cell_angle_gamma   88.80934639
_symmetry_Int_Tables_number   1
_chemical_formula_structural   Co
_chemical_formula_sum   Co30
_cell_volume   1181.82878223
_cell_formula_units_Z   30
loop_
 _symmetry_equiv_pos_site_id
 _symmetry_equiv_pos_as_xyz
  1  'x, y, z'
loop_
 _atom_site_type_symbol
 _atom_site_label
 _atom_site_symmetry_multiplicity
 _atom_site_fract_x
 _atom_site_fract_y
 _atom_site_fract_z
 _atom_site_occupancy
  Co  Co0  1  0.62166351  0.29838850  0.81069336  1.0
  Co  Co1  1  0.40018817  0.46759298  0.75074551  1.0
  Co  Co2  1  0.02617946  0.62906141  0.39423836  1.0
  Co  Co3  1  0.48337758  0.53312371  0.01171204  1.0
  Co  Co4  1  0.42515932  0.84826592  0.37785194  1.0
  Co  Co5  1  0.56779851  0.94159719  0.81312121  1.0
  Co  Co6  1  0.14098120  0.19251098  0.91296315  1.0
  Co  Co7  1  0.20864677  0.67321297  0.90338693  1.0
  Co  Co8  1  0.06433363  0.09538822  0.54266822  1.0
  Co  Co9  1  0.71558606  0.66808973  0.31044555  1.0
  Co  Co10  1  0.96365970  0.47309136  0.93164232  1.0
  Co  Co11  1  0.08316054  0.35297208  0.46272006  1.0
  Co  Co12  1  0.21210327  0.92263175  0.76741637  1.0
  Co  Co13  1  0.82626099  0.22419195  0.59761098  1.0
  Co  Co14  1  0.84908891  0.04773216  0.82148626  1.0
  Co  Co15  1  0.79788029  0.21730620  0.07441054  1.0
  Co  Co16  1  0.37297111  0.36052613  0.28010884  1.0
  Co  Co17  1  0.68333878  0.81071718  0.01811911  1.0
  Co  Co18  1  0.44057884  0.74729691  0.62437661  1.0
  Co  Co19  1  0.15390550  0.38022829  0.71059353  1.0
  Co  Co20  1  0.36072026  0.18434533  0.68580825  1.0
  Co  Co21  1  0.71310487  0.96228866  0.28971265  1.0
  Co  Co22  1  0.55305512  0.04264935  0.51149148  1.0
  Co  Co23  1  0.59674891  0.34272306  0.50358029  1.0
  Co  Co24  1  0.63510645  0.61636107  0.79504539  1.0
  Co  Co25  1  0.05140615  0.95262921  0.28683455  1.0
  Co  Co26  1  0.95887166  0.59479830  0.69011952  1.0
  Co  Co27  1  0.21142752  0.78136544  0.17832258  1.0
  Co  Co28  1  0.18161811  0.78387713  0.54022904  1.0
  Co  Co29  1  0.56153341  0.09046873  0.05005224  1.0
