# generated using pymatgen
data_Co
_symmetry_space_group_name_H-M   'P 1'
_cell_length_a   5.58080825
_cell_length_b   5.66383048
_cell_length_c   5.58634516
_cell_angle_alpha   60.66920865
_cell_angle_beta   89.59871114
_cell_angle_gamma   119.29875757
_symmetry_Int_Tables_number   1
_chemical_formula_structural   Co
_chemical_formula_sum   Co4
_cell_volume   126.98387960
_cell_formula_units_Z   4
loop_
 _symmetry_equiv_pos_site_id
 _symmetry_equiv_pos_as_xyz
  1  'x, y, z'
loop_
 _atom_site_type_symbol
 _atom_site_label
 _atom_site_symmetry_multiplicity
 _atom_site_fract_x
 _atom_site_fract_y
 _atom_site_fract_z
 _atom_site_occupancy
  Co  Co0  1  0.00001500  0.50002800  0.99995500  1.0
  Co  Co1  1  0.00001500  0.50002900  0.50001600  1.0
  Co  Co2  1  0.49995900  0.99997400  0.50001200  1.0
  Co  Co3  1  0.00001600  0.99997500  0.50001200  1.0
