# generated using pymatgen
data_Co
_symmetry_space_group_name_H-M   'P 1'
_cell_length_a   10.55379356
_cell_length_b   10.90110038
_cell_length_c   10.61236031
_cell_angle_alpha   87.14653096
_cell_angle_beta   87.00557363
_cell_angle_gamma   87.19206682
_symmetry_Int_Tables_number   1
_chemical_formula_structural   Co
_chemical_formula_sum   Co30
_cell_volume   1216.43391533
_cell_formula_units_Z   30
loop_
 _symmetry_equiv_pos_site_id
 _symmetry_equiv_pos_as_xyz
  1  'x, y, z'
loop_
 _atom_site_type_symbol
 _atom_site_label
 _atom_site_symmetry_multiplicity
 _atom_site_fract_x
 _atom_site_fract_y
 _atom_site_fract_z
 _atom_site_occupancy
  Co  Co0  1  0.25383392  0.89116286  0.77785747  1.0
  Co  Co1  1  0.11932091  0.49766940  0.49560504  1.0
  Co  Co2  1  0.69036446  0.21876761  0.64280798  1.0
  Co  Co3  1  0.86162857  0.46643877  0.71698903  1.0
  Co  Co4  1  0.59232344  0.67957316  0.72087056  1.0
  Co  Co5  1  0.25683608  0.24437977  0.58581503  1.0
  Co  Co6  1  0.28540910  0.66582705  0.99666712  1.0
  Co  Co7  1  0.76396713  0.90097717  0.66422754  1.0
  Co  Co8  1  0.40013247  0.17508680  0.82185896  1.0
  Co  Co9  1  0.64002102  0.32954815  0.90381586  1.0
  Co  Co10  1  0.11696610  0.89268651  0.37657566  1.0
  Co  Co11  1  0.50359389  0.89815920  0.92862268  1.0
  Co  Co12  1  0.99589528  0.97766652  0.94230293  1.0
  Co  Co13  1  0.32996848  0.04946043  0.17432897  1.0
  Co  Co14  1  0.08987198  0.17021863  0.36911788  1.0
  Co  Co15  1  0.85967505  0.98160090  0.26404839  1.0
  Co  Co16  1  0.84212375  0.65992819  0.52200013  1.0
  Co  Co17  1  0.86529583  0.52596804  0.98530416  1.0
  Co  Co18  1  0.56410713  0.39477219  0.27187939  1.0
  Co  Co19  1  0.38276274  0.75766446  0.26634900  1.0
  Co  Co20  1  0.32097232  0.36669193  0.03059039  1.0
  Co  Co21  1  0.07172693  0.42557463  0.22139749  1.0
  Co  Co22  1  0.54554026  0.63500317  0.09641409  1.0
  Co  Co23  1  0.57974397  0.11508441  0.36896064  1.0
  Co  Co24  1  0.01379743  0.72541908  0.77117649  1.0
  Co  Co25  1  0.75504594  0.06963597  0.99049182  1.0
  Co  Co26  1  0.28186288  0.72629075  0.55823601  1.0
  Co  Co27  1  0.76194173  0.78756849  0.94475885  1.0
  Co  Co28  1  0.32052285  0.49132683  0.74477881  1.0
  Co  Co29  1  0.02574759  0.67404459  0.20382864  1.0
