# generated using pymatgen
data_Co
_symmetry_space_group_name_H-M   'P 1'
_cell_length_a   2.86917000
_cell_length_b   8.30860100
_cell_length_c   9.92563400
_cell_angle_alpha   90.00000000
_cell_angle_beta   90.00000000
_cell_angle_gamma   90.00000000
_symmetry_Int_Tables_number   1
_chemical_formula_structural   Co
_chemical_formula_sum   Co8
_cell_volume   236.61509195
_cell_formula_units_Z   8
loop_
 _symmetry_equiv_pos_site_id
 _symmetry_equiv_pos_as_xyz
  1  'x, y, z'
loop_
 _atom_site_type_symbol
 _atom_site_label
 _atom_site_symmetry_multiplicity
 _atom_site_fract_x
 _atom_site_fract_y
 _atom_site_fract_z
 _atom_site_occupancy
  Co  Co0  1  0.75000000  0.91216600  0.60136300  1.0
  Co  Co1  1  0.25000000  0.58783400  0.10136300  1.0
  Co  Co2  1  0.75000000  0.41216600  0.89863700  1.0
  Co  Co3  1  0.25000000  0.08783400  0.39863700  1.0
  Co  Co4  1  0.25000000  0.05255800  0.88418100  1.0
  Co  Co5  1  0.75000000  0.94744200  0.11581900  1.0
  Co  Co6  1  0.25000000  0.55255800  0.61581900  1.0
  Co  Co7  1  0.75000000  0.44744200  0.38418100  1.0
