# generated using pymatgen
data_Co
_symmetry_space_group_name_H-M   'P 1'
_cell_length_a   5.66874200
_cell_length_b   5.69530835
_cell_length_c   18.72760727
_cell_angle_alpha   81.78187812
_cell_angle_beta   81.29253307
_cell_angle_gamma   60.15389536
_symmetry_Int_Tables_number   1
_chemical_formula_structural   Co
_chemical_formula_sum   Co16
_cell_volume   516.77256110
_cell_formula_units_Z   16
loop_
 _symmetry_equiv_pos_site_id
 _symmetry_equiv_pos_as_xyz
  1  'x, y, z'
loop_
 _atom_site_type_symbol
 _atom_site_label
 _atom_site_symmetry_multiplicity
 _atom_site_fract_x
 _atom_site_fract_y
 _atom_site_fract_z
 _atom_site_occupancy
  Co  Co0  1  0.38033800  0.37918000  0.87518000  1.0
  Co  Co1  1  0.25315200  0.24772000  0.74596600  1.0
  Co  Co2  1  0.86522300  0.37921100  0.87517900  1.0
  Co  Co3  1  0.35130100  0.33236800  0.46509700  1.0
  Co  Co4  1  0.12792200  0.12290900  0.62264100  1.0
  Co  Co5  1  0.90529800  0.91064500  0.77906100  1.0
  Co  Co6  1  0.09770500  0.08692900  0.21778500  1.0
  Co  Co7  1  0.62672000  0.12286900  0.62264600  1.0
  Co  Co8  1  0.87758000  0.87155700  0.37536500  1.0
  Co  Co9  1  0.65159900  0.66365000  0.53291500  1.0
  Co  Co10  1  0.37547100  0.87155700  0.37537000  1.0
  Co  Co11  1  0.11622500  0.62978200  0.12776300  1.0
  Co  Co12  1  0.62627800  0.62977100  0.12775300  1.0
  Co  Co13  1  0.40101400  0.41341700  0.28449100  1.0
  Co  Co14  1  0.50018000  0.50196200  0.99756600  1.0
  Co  Co15  1  0.15148500  0.16786600  0.02919800  1.0
