# generated using pymatgen
data_Co
_symmetry_space_group_name_H-M   'P 1'
_cell_length_a   2.87482800
_cell_length_b   6.86748845
_cell_length_c   6.86748845
_cell_angle_alpha   87.48909942
_cell_angle_beta   77.91825115
_cell_angle_gamma   77.91825114
_symmetry_Int_Tables_number   1
_chemical_formula_structural   Co
_chemical_formula_sum   Co4
_cell_volume   129.64392946
_cell_formula_units_Z   4
loop_
 _symmetry_equiv_pos_site_id
 _symmetry_equiv_pos_as_xyz
  1  'x, y, z'
loop_
 _atom_site_type_symbol
 _atom_site_label
 _atom_site_symmetry_multiplicity
 _atom_site_fract_x
 _atom_site_fract_y
 _atom_site_fract_z
 _atom_site_occupancy
  Co  Co0  1  0.16593200  0.18379600  0.48434000  1.0
  Co  Co1  1  0.34972900  0.48433900  0.81620400  1.0
  Co  Co2  1  0.65027100  0.51566100  0.18379600  1.0
  Co  Co3  1  0.83406800  0.81620400  0.51566000  1.0
