# generated using pymatgen
data_Co
_symmetry_space_group_name_H-M   'P 1'
_cell_length_a   9.80269504
_cell_length_b   10.68183868
_cell_length_c   10.70738481
_cell_angle_alpha   85.08723615
_cell_angle_beta   86.50252346
_cell_angle_gamma   87.36653786
_symmetry_Int_Tables_number   1
_chemical_formula_structural   Co
_chemical_formula_sum   Co30
_cell_volume   1114.04424856
_cell_formula_units_Z   30
loop_
 _symmetry_equiv_pos_site_id
 _symmetry_equiv_pos_as_xyz
  1  'x, y, z'
loop_
 _atom_site_type_symbol
 _atom_site_label
 _atom_site_symmetry_multiplicity
 _atom_site_fract_x
 _atom_site_fract_y
 _atom_site_fract_z
 _atom_site_occupancy
  Co  Co0  1  0.76901987  0.75105228  0.48800882  1.0
  Co  Co1  1  0.48628068  0.83585596  0.56218181  1.0
  Co  Co2  1  0.93701294  0.19045442  0.56101272  1.0
  Co  Co3  1  0.63546184  0.04984439  0.54909731  1.0
  Co  Co4  1  0.49921849  0.33623211  0.32778496  1.0
  Co  Co5  1  0.51520755  0.72526608  0.23276863  1.0
  Co  Co6  1  0.18091879  0.75661461  0.72028641  1.0
  Co  Co7  1  0.24603580  0.92515576  0.17182841  1.0
  Co  Co8  1  0.73406676  0.59112521  0.98584481  1.0
  Co  Co9  1  0.90777659  0.19907744  0.26256791  1.0
  Co  Co10  1  0.97726169  0.97151939  0.43536142  1.0
  Co  Co11  1  0.05993483  0.47756371  0.90052982  1.0
  Co  Co12  1  0.15852213  0.96091841  0.86184784  1.0
  Co  Co13  1  0.76420575  0.64698740  0.72032842  1.0
  Co  Co14  1  0.79707044  0.90857088  0.73795232  1.0
  Co  Co15  1  0.83462637  0.34567842  0.80042997  1.0
  Co  Co16  1  0.51779209  0.28306057  0.74779132  1.0
  Co  Co17  1  0.69406057  0.01696122  0.18613234  1.0
  Co  Co18  1  0.48882424  0.57445731  0.53397079  1.0
  Co  Co19  1  0.02747762  0.55673273  0.63296700  1.0
  Co  Co20  1  0.40986301  0.72108871  0.87295964  1.0
  Co  Co21  1  0.67376092  0.25242420  0.03612935  1.0
  Co  Co22  1  0.44438196  0.43503081  0.05218149  1.0
  Co  Co23  1  0.71871302  0.42552638  0.53411113  1.0
  Co  Co24  1  0.27015247  0.07176036  0.39507005  1.0
  Co  Co25  1  0.23872484  0.30437715  0.21434007  1.0
  Co  Co26  1  0.10831297  0.74478368  0.40146225  1.0
  Co  Co27  1  0.38291306  0.11778051  0.03055421  1.0
  Co  Co28  1  0.23348811  0.61278173  0.18439206  1.0
  Co  Co29  1  0.56874945  0.99611121  0.87232206  1.0
