# generated using pymatgen
data_Co
_symmetry_space_group_name_H-M   'P 1'
_cell_length_a   10.29001624
_cell_length_b   10.74344722
_cell_length_c   10.45380826
_cell_angle_alpha   86.33894899
_cell_angle_beta   84.88021603
_cell_angle_gamma   90.06368174
_symmetry_Int_Tables_number   1
_chemical_formula_structural   Co
_chemical_formula_sum   Co30
_cell_volume   1148.68433348
_cell_formula_units_Z   30
loop_
 _symmetry_equiv_pos_site_id
 _symmetry_equiv_pos_as_xyz
  1  'x, y, z'
loop_
 _atom_site_type_symbol
 _atom_site_label
 _atom_site_symmetry_multiplicity
 _atom_site_fract_x
 _atom_site_fract_y
 _atom_site_fract_z
 _atom_site_occupancy
  Co  Co0  1  0.37402494  0.25152125  0.95468134  1.0
  Co  Co1  1  0.07998265  0.45949322  0.48309735  1.0
  Co  Co2  1  0.50973677  0.82540801  0.20136343  1.0
  Co  Co3  1  0.75374321  0.76519642  0.00333903  1.0
  Co  Co4  1  0.37111955  0.38052857  0.49893443  1.0
  Co  Co5  1  0.25584713  0.72348597  0.39450060  1.0
  Co  Co6  1  0.57354307  0.24266348  0.74675641  1.0
  Co  Co7  1  0.00768766  0.07606958  0.56563835  1.0
  Co  Co8  1  0.27148430  0.00456702  0.18052068  1.0
  Co  Co9  1  0.55446161  0.01648962  0.98783515  1.0
  Co  Co10  1  0.25681327  0.75384662  0.72830560  1.0
  Co  Co11  1  0.62217051  0.37414120  0.33503643  1.0
  Co  Co12  1  0.01201350  0.08521273  0.07961720  1.0
  Co  Co13  1  0.22997306  0.82505394  0.01203341  1.0
  Co  Co14  1  0.04420203  0.76762021  0.57179125  1.0
  Co  Co15  1  0.82492591  0.91720929  0.42470912  1.0
  Co  Co16  1  0.50184720  0.53084156  0.66375847  1.0
  Co  Co17  1  0.78426136  0.44160174  0.06838984  1.0
  Co  Co18  1  0.26899996  0.52900998  0.88267585  1.0
  Co  Co19  1  0.33461059  0.00476047  0.80649587  1.0
  Co  Co20  1  0.97432732  0.64325925  0.89173913  1.0
  Co  Co21  1  0.12485936  0.37563761  0.02521423  1.0
  Co  Co22  1  0.85287639  0.23837735  0.91782291  1.0
  Co  Co23  1  0.58216275  0.88216597  0.75219963  1.0
  Co  Co24  1  0.89349481  0.30686576  0.26685277  1.0
  Co  Co25  1  0.61857155  0.16110323  0.20457190  1.0
  Co  Co26  1  0.33671506  0.16884609  0.38173915  1.0
  Co  Co27  1  0.00001237  0.95801395  0.82473223  1.0
  Co  Co28  1  0.20019133  0.50942437  0.22928437  1.0
  Co  Co29  1  0.18264926  0.25906051  0.71586188  1.0
