# generated using pymatgen
data_Co
_symmetry_space_group_name_H-M   'P 1'
_cell_length_a   2.82105798
_cell_length_b   2.83778687
_cell_length_c   10.61611107
_cell_angle_alpha   89.32781531
_cell_angle_beta   88.46113094
_cell_angle_gamma   60.28307600
_symmetry_Int_Tables_number   1
_chemical_formula_structural   Co
_chemical_formula_sum   Co2
_cell_volume   73.78400830
_cell_formula_units_Z   2
loop_
 _symmetry_equiv_pos_site_id
 _symmetry_equiv_pos_as_xyz
  1  'x, y, z'
loop_
 _atom_site_type_symbol
 _atom_site_label
 _atom_site_symmetry_multiplicity
 _atom_site_fract_x
 _atom_site_fract_y
 _atom_site_fract_z
 _atom_site_occupancy
  Co  Co0  1  0.04846100  0.99070600  0.99212800  1.0
  Co  Co1  1  0.54712950  0.99958000  0.49613100  1.0
