# generated using pymatgen
data_Co
_symmetry_space_group_name_H-M   'P 1'
_cell_length_a   2.81464258
_cell_length_b   2.84165320
_cell_length_c   10.29481765
_cell_angle_alpha   89.89474218
_cell_angle_beta   89.90652404
_cell_angle_gamma   119.68148020
_symmetry_Int_Tables_number   1
_chemical_formula_structural   Co
_chemical_formula_sum   Co2
_cell_volume   71.53622499
_cell_formula_units_Z   2
loop_
 _symmetry_equiv_pos_site_id
 _symmetry_equiv_pos_as_xyz
  1  'x, y, z'
loop_
 _atom_site_type_symbol
 _atom_site_label
 _atom_site_symmetry_multiplicity
 _atom_site_fract_x
 _atom_site_fract_y
 _atom_site_fract_z
 _atom_site_occupancy
  Co  Co0  1  0.99972850  0.00191100  0.50183200  1.0
  Co  Co1  1  0.99977150  0.00204600  0.00231600  1.0
