# generated using pymatgen
data_Co
_symmetry_space_group_name_H-M   'P 1'
_cell_length_a   5.65306600
_cell_length_b   5.65306620
_cell_length_c   13.99383900
_cell_angle_alpha   90.00000000
_cell_angle_beta   90.00000000
_cell_angle_gamma   119.99999881
_symmetry_Int_Tables_number   1
_chemical_formula_structural   Co
_chemical_formula_sum   Co12
_cell_volume   387.28942338
_cell_formula_units_Z   12
loop_
 _symmetry_equiv_pos_site_id
 _symmetry_equiv_pos_as_xyz
  1  'x, y, z'
loop_
 _atom_site_type_symbol
 _atom_site_label
 _atom_site_symmetry_multiplicity
 _atom_site_fract_x
 _atom_site_fract_y
 _atom_site_fract_z
 _atom_site_occupancy
  Co  Co0  1  0.16103200  0.32206400  0.16669600  1.0
  Co  Co1  1  0.16103200  0.83896800  0.16669600  1.0
  Co  Co2  1  0.49433500  0.98867000  0.50039800  1.0
  Co  Co3  1  0.67793600  0.83896800  0.16669600  1.0
  Co  Co4  1  0.49433500  0.50566500  0.50039800  1.0
  Co  Co5  1  0.66666667  0.33333333  0.66334900  1.0
  Co  Co6  1  0.66666667  0.33333333  0.28850000  1.0
  Co  Co7  1  0.83230000  0.66460000  0.83056700  1.0
  Co  Co8  1  0.01133000  0.50566500  0.50039800  1.0
  Co  Co9  1  0.83230000  0.16770000  0.83056700  1.0
  Co  Co10  1  0.33540000  0.16770000  0.83056700  1.0
  Co  Co11  1  0.33333333  0.66666667  0.95687300  1.0
