# generated using pymatgen
data_Fe
_symmetry_space_group_name_H-M   'P 1'
_cell_length_a   4.77044600
_cell_length_b   6.24942029
_cell_length_c   6.31792408
_cell_angle_alpha   81.71522126
_cell_angle_beta   67.81906344
_cell_angle_gamma   67.56276828
_symmetry_Int_Tables_number   1
_chemical_formula_structural   Fe
_chemical_formula_sum   Fe10
_cell_volume   161.21092154
_cell_formula_units_Z   10
loop_
 _symmetry_equiv_pos_site_id
 _symmetry_equiv_pos_as_xyz
  1  'x, y, z'
loop_
 _atom_site_type_symbol
 _atom_site_label
 _atom_site_symmetry_multiplicity
 _atom_site_fract_x
 _atom_site_fract_y
 _atom_site_fract_z
 _atom_site_occupancy
  Fe  Fe0  1  0.00311500  0.63852300  0.35524700  1.0
  Fe  Fe1  1  0.99688500  0.36147700  0.64475300  1.0
  Fe  Fe2  1  0.64163800  0.36147700  0.35524700  1.0
  Fe  Fe3  1  0.35836200  0.63852300  0.64475300  1.0
  Fe  Fe4  1  0.00000000  0.00000000  0.50000000  1.0
  Fe  Fe5  1  0.50000000  0.00000000  0.50000000  1.0
  Fe  Fe6  1  0.49894400  0.22038800  0.78172400  1.0
  Fe  Fe7  1  0.50105600  0.77961200  0.21827600  1.0
  Fe  Fe8  1  0.71933200  0.77961200  0.78172400  1.0
  Fe  Fe9  1  0.28066800  0.22038800  0.21827600  1.0
