# generated using pymatgen
data_Co
_symmetry_space_group_name_H-M   'P 1'
_cell_length_a   6.15823107
_cell_length_b   6.15823107
_cell_length_c   13.56915894
_cell_angle_alpha   102.10162376
_cell_angle_beta   102.10162376
_cell_angle_gamma   90.38004916
_symmetry_Int_Tables_number   1
_chemical_formula_structural   Co
_chemical_formula_sum   Co14
_cell_volume   491.28786411
_cell_formula_units_Z   14
loop_
 _symmetry_equiv_pos_site_id
 _symmetry_equiv_pos_as_xyz
  1  'x, y, z'
loop_
 _atom_site_type_symbol
 _atom_site_label
 _atom_site_symmetry_multiplicity
 _atom_site_fract_x
 _atom_site_fract_y
 _atom_site_fract_z
 _atom_site_occupancy
  Co  Co0  1  0.70212900  0.97964700  0.92114400  1.0
  Co  Co1  1  0.02035300  0.29787100  0.57885600  1.0
  Co  Co2  1  0.97964700  0.70212900  0.42114400  1.0
  Co  Co3  1  0.35848700  0.64151300  0.25000000  1.0
  Co  Co4  1  0.33566100  0.81947500  0.66068200  1.0
  Co  Co5  1  0.29787100  0.02035300  0.07885600  1.0
  Co  Co6  1  0.66433900  0.18052500  0.33931800  1.0
  Co  Co7  1  0.81947500  0.33566100  0.16068200  1.0
  Co  Co8  1  0.50000000  0.50000000  1.00000000  1.0
  Co  Co9  1  0.64151300  0.35848700  0.75000000  1.0
  Co  Co10  1  1.00000000  0.50000000  1.00000000  1.0
  Co  Co11  1  0.18052500  0.66433900  0.83931800  1.0
  Co  Co12  1  0.50000000  0.50000000  0.50000000  1.0
  Co  Co13  1  0.50000000  0.00000000  0.50000000  1.0
