# generated using pymatgen
data_Co
_symmetry_space_group_name_H-M   'P 1'
_cell_length_a   6.07455800
_cell_length_b   6.10550940
_cell_length_c   15.34576770
_cell_angle_alpha   89.79643894
_cell_angle_beta   90.00000000
_cell_angle_gamma   119.83244609
_symmetry_Int_Tables_number   1
_chemical_formula_structural   Co
_chemical_formula_sum   Co14
_cell_volume   493.72256766
_cell_formula_units_Z   14
loop_
 _symmetry_equiv_pos_site_id
 _symmetry_equiv_pos_as_xyz
  1  'x, y, z'
loop_
 _atom_site_type_symbol
 _atom_site_label
 _atom_site_symmetry_multiplicity
 _atom_site_fract_x
 _atom_site_fract_y
 _atom_site_fract_z
 _atom_site_occupancy
  Co  Co0  1  0.33191300  0.66382600  0.46882600  1.0
  Co  Co1  1  0.99291100  0.98582200  0.14146500  1.0
  Co  Co2  1  0.66115900  0.32231800  0.79082000  1.0
  Co  Co3  1  0.33884100  0.67768200  0.20918000  1.0
  Co  Co4  1  0.00708900  0.01417800  0.85853500  1.0
  Co  Co5  1  0.66808700  0.33617400  0.53117400  1.0
  Co  Co6  1  0.16563300  0.33126600  0.66166500  1.0
  Co  Co7  1  0.83436700  0.66873400  0.33833500  1.0
  Co  Co8  1  0.50000000  0.50000000  0.00000000  1.0
  Co  Co9  1  0.16632600  0.83245800  0.66224400  1.0
  Co  Co10  1  0.83367400  0.16754200  0.33775600  1.0
  Co  Co11  1  0.00000000  0.50000000  0.00000000  1.0
  Co  Co12  1  0.66613200  0.83245800  0.66224400  1.0
  Co  Co13  1  0.33386800  0.16754200  0.33775600  1.0
