# generated using pymatgen
data_Nb
_symmetry_space_group_name_H-M   'P 1'
_cell_length_a   4.00163600
_cell_length_b   5.82778000
_cell_length_c   13.81770169
_cell_angle_alpha   90.00000000
_cell_angle_beta   98.32575981
_cell_angle_gamma   90.00000000
_symmetry_Int_Tables_number   1
_chemical_formula_structural   Nb
_chemical_formula_sum   Nb4
_cell_volume   318.84171033
_cell_formula_units_Z   4
loop_
 _symmetry_equiv_pos_site_id
 _symmetry_equiv_pos_as_xyz
  1  'x, y, z'
loop_
 _atom_site_type_symbol
 _atom_site_label
 _atom_site_symmetry_multiplicity
 _atom_site_fract_x
 _atom_site_fract_y
 _atom_site_fract_z
 _atom_site_occupancy
  Nb  Nb0  1  0.83882400  0.50435700  0.67764800  1.0
  Nb  Nb1  1  0.16117600  0.00435700  0.32235200  1.0
  Nb  Nb2  1  0.05847500  0.47279300  0.11695000  1.0
  Nb  Nb3  1  0.94152500  0.97279300  0.88305000  1.0
