# generated using pymatgen
data_Mn
_symmetry_space_group_name_H-M   'P 1'
_cell_length_a   5.84017516
_cell_length_b   5.84017516
_cell_length_c   5.97728665
_cell_angle_alpha   60.75595255
_cell_angle_beta   60.75595255
_cell_angle_gamma   60.00000952
_symmetry_Int_Tables_number   1
_chemical_formula_structural   Mn
_chemical_formula_sum   Mn4
_cell_volume   145.78399114
_cell_formula_units_Z   4
loop_
 _symmetry_equiv_pos_site_id
 _symmetry_equiv_pos_as_xyz
  1  'x, y, z'
loop_
 _atom_site_type_symbol
 _atom_site_label
 _atom_site_symmetry_multiplicity
 _atom_site_fract_x
 _atom_site_fract_y
 _atom_site_fract_z
 _atom_site_occupancy
  Mn  Mn0  1  0.24558300  0.24558300  0.26325100  1.0
  Mn  Mn1  1  0.11682300  0.62760200  0.62797300  1.0
  Mn  Mn2  1  0.62760200  0.62760200  0.62797300  1.0
  Mn  Mn3  1  0.62760200  0.11682300  0.62797300  1.0
