# generated using pymatgen
data_Mn
_symmetry_space_group_name_H-M   'P 1'
_cell_length_a   2.91633100
_cell_length_b   4.58096600
_cell_length_c   9.43439300
_cell_angle_alpha   90.00363549
_cell_angle_beta   89.99998785
_cell_angle_gamma   89.99998749
_symmetry_Int_Tables_number   1
_chemical_formula_structural   Mn
_chemical_formula_sum   Mn4
_cell_volume   126.03984059
_cell_formula_units_Z   4
loop_
 _symmetry_equiv_pos_site_id
 _symmetry_equiv_pos_as_xyz
  1  'x, y, z'
loop_
 _atom_site_type_symbol
 _atom_site_label
 _atom_site_symmetry_multiplicity
 _atom_site_fract_x
 _atom_site_fract_y
 _atom_site_fract_z
 _atom_site_occupancy
  Mn  Mn0  1  0.75000000  0.02126500  0.13498600  1.0
  Mn  Mn1  1  0.25000100  0.97874100  0.86500800  1.0
  Mn  Mn2  1  0.25000000  0.52131000  0.36503200  1.0
  Mn  Mn3  1  0.74999900  0.47868900  0.63497600  1.0
