# generated using pymatgen
data_Mn
_symmetry_space_group_name_H-M   'P 1'
_cell_length_a   5.78587184
_cell_length_b   5.78872065
_cell_length_c   8.87613124
_cell_angle_alpha   90.00959215
_cell_angle_beta   90.05639568
_cell_angle_gamma   60.06979722
_symmetry_Int_Tables_number   1
_chemical_formula_structural   Mn
_chemical_formula_sum   Mn8
_cell_volume   257.63836089
_cell_formula_units_Z   8
loop_
 _symmetry_equiv_pos_site_id
 _symmetry_equiv_pos_as_xyz
  1  'x, y, z'
loop_
 _atom_site_type_symbol
 _atom_site_label
 _atom_site_symmetry_multiplicity
 _atom_site_fract_x
 _atom_site_fract_y
 _atom_site_fract_z
 _atom_site_occupancy
  Mn  Mn0  1  0.16918800  0.16752400  0.21093300  1.0
  Mn  Mn1  1  0.33589900  0.33326300  0.48707600  1.0
  Mn  Mn2  1  0.66690600  0.16686400  0.21137500  1.0
  Mn  Mn3  1  0.16942900  0.66526400  0.21099200  1.0
  Mn  Mn4  1  0.83508200  0.33017000  0.71095400  1.0
  Mn  Mn5  1  0.66850400  0.66420600  0.98750000  1.0
  Mn  Mn6  1  0.33790300  0.82998400  0.70976400  1.0
  Mn  Mn7  1  0.83718100  0.82669900  0.71054600  1.0
