# generated using pymatgen
data_Mn
_symmetry_space_group_name_H-M   'P 1'
_cell_length_a   5.84821800
_cell_length_b   5.84821856
_cell_length_c   28.63843200
_cell_angle_alpha   90.00000000
_cell_angle_beta   90.00000000
_cell_angle_gamma   119.99999684
_symmetry_Int_Tables_number   1
_chemical_formula_structural   Mn
_chemical_formula_sum   Mn24
_cell_volume   848.25617429
_cell_formula_units_Z   24
loop_
 _symmetry_equiv_pos_site_id
 _symmetry_equiv_pos_as_xyz
  1  'x, y, z'
loop_
 _atom_site_type_symbol
 _atom_site_label
 _atom_site_symmetry_multiplicity
 _atom_site_fract_x
 _atom_site_fract_y
 _atom_site_fract_z
 _atom_site_occupancy
  Mn  Mn0  1  0.99057200  0.49528600  0.91690800  1.0
  Mn  Mn1  1  0.50471400  0.00942800  0.91690800  1.0
  Mn  Mn2  1  0.50471400  0.49528600  0.91690800  1.0
  Mn  Mn3  1  0.65905800  0.82952900  0.75068600  1.0
  Mn  Mn4  1  0.17047100  0.34094200  0.75068600  1.0
  Mn  Mn5  1  0.17047100  0.82952900  0.75068600  1.0
  Mn  Mn6  1  0.33299200  0.16649600  0.58363800  1.0
  Mn  Mn7  1  0.00000000  0.00000000  0.85794900  1.0
  Mn  Mn8  1  0.00000000  0.00000000  0.66765500  1.0
  Mn  Mn9  1  0.83350400  0.66700800  0.58363800  1.0
  Mn  Mn10  1  0.99980400  0.49990200  0.41677800  1.0
  Mn  Mn11  1  0.83350400  0.16649600  0.58363800  1.0
  Mn  Mn12  1  0.50009800  0.00019600  0.41677800  1.0
  Mn  Mn13  1  0.66666667  0.33333333  0.50027100  1.0
  Mn  Mn14  1  0.66651600  0.83325800  0.25007400  1.0
  Mn  Mn15  1  0.50009800  0.49990200  0.41677800  1.0
  Mn  Mn16  1  0.33333333  0.66666667  0.33352200  1.0
  Mn  Mn17  1  0.16674200  0.33348400  0.25007400  1.0
  Mn  Mn18  1  0.16674200  0.83325800  0.25007400  1.0
  Mn  Mn19  1  0.33381500  0.16690700  0.08329700  1.0
  Mn  Mn20  1  0.83309200  0.66618400  0.08329700  1.0
  Mn  Mn21  1  0.00000000  0.00000000  0.16676500  1.0
  Mn  Mn22  1  0.83309200  0.16690700  0.08329700  1.0
  Mn  Mn23  1  0.33333333  0.66666667  0.02210000  1.0
