# generated using pymatgen
data_Mn
_symmetry_space_group_name_H-M   'P 1'
_cell_length_a   5.81551632
_cell_length_b   5.81567863
_cell_length_c   14.66489531
_cell_angle_alpha   90.10469770
_cell_angle_beta   90.03143110
_cell_angle_gamma   60.08870586
_symmetry_Int_Tables_number   1
_chemical_formula_structural   Mn
_chemical_formula_sum   Mn12
_cell_volume   429.91739588
_cell_formula_units_Z   12
loop_
 _symmetry_equiv_pos_site_id
 _symmetry_equiv_pos_as_xyz
  1  'x, y, z'
loop_
 _atom_site_type_symbol
 _atom_site_label
 _atom_site_symmetry_multiplicity
 _atom_site_fract_x
 _atom_site_fract_y
 _atom_site_fract_z
 _atom_site_occupancy
  Mn  Mn0  1  0.67544800  0.66134000  0.16706800  1.0
  Mn  Mn1  1  0.16542300  0.66206000  0.16838000  1.0
  Mn  Mn2  1  0.00734700  0.99568300  0.50145200  1.0
  Mn  Mn3  1  0.16069400  0.17510500  0.16669400  1.0
  Mn  Mn4  1  0.49714700  0.99462200  0.50117800  1.0
  Mn  Mn5  1  0.66757200  0.16472600  0.66370400  1.0
  Mn  Mn6  1  0.66698600  0.16567400  0.28941600  1.0
  Mn  Mn7  1  0.33462700  0.33262000  0.82812700  1.0
  Mn  Mn8  1  0.49726400  0.50449700  0.50200800  1.0
  Mn  Mn9  1  0.83238200  0.33329500  0.82856400  1.0
  Mn  Mn10  1  0.83249200  0.83422700  0.82858400  1.0
  Mn  Mn11  1  0.33070100  0.83583100  0.95569800  1.0
