# generated using pymatgen
data_Mn
_symmetry_space_group_name_H-M   'P 1'
_cell_length_a   2.90415800
_cell_length_b   3.84481000
_cell_length_c   6.16426400
_cell_angle_alpha   89.99990882
_cell_angle_beta   89.99999071
_cell_angle_gamma   90.00003463
_symmetry_Int_Tables_number   1
_chemical_formula_structural   Mn
_chemical_formula_sum   Mn2
_cell_volume   68.82977558
_cell_formula_units_Z   2
loop_
 _symmetry_equiv_pos_site_id
 _symmetry_equiv_pos_as_xyz
  1  'x, y, z'
loop_
 _atom_site_type_symbol
 _atom_site_label
 _atom_site_symmetry_multiplicity
 _atom_site_fract_x
 _atom_site_fract_y
 _atom_site_fract_z
 _atom_site_occupancy
  Mn  Mn0  1  0.99999900  0.00000000  0.03169300  1.0
  Mn  Mn1  1  0.50000000  0.50000100  0.71829600  1.0
