# generated using pymatgen
data_Mn
_symmetry_space_group_name_H-M   'P 1'
_cell_length_a   2.92330995
_cell_length_b   2.92333800
_cell_length_c   10.58204950
_cell_angle_alpha   90.00039903
_cell_angle_beta   89.99664285
_cell_angle_gamma   59.99964025
_symmetry_Int_Tables_number   1
_chemical_formula_structural   Mn
_chemical_formula_sum   Mn2
_cell_volume   78.31640472
_cell_formula_units_Z   2
loop_
 _symmetry_equiv_pos_site_id
 _symmetry_equiv_pos_as_xyz
  1  'x, y, z'
loop_
 _atom_site_type_symbol
 _atom_site_label
 _atom_site_symmetry_multiplicity
 _atom_site_fract_x
 _atom_site_fract_y
 _atom_site_fract_z
 _atom_site_occupancy
  Mn  Mn0  1  0.99999500  0.99999950  0.49997900  1.0
  Mn  Mn1  1  0.00000250  0.00000000  0.00002000  1.0
