# generated using pymatgen
data_Mn
_symmetry_space_group_name_H-M   'P 1'
_cell_length_a   5.77563938
_cell_length_b   5.77563938
_cell_length_c   19.23464216
_cell_angle_alpha   95.11189789
_cell_angle_beta   94.16383575
_cell_angle_gamma   117.48116047
_symmetry_Int_Tables_number   1
_chemical_formula_structural   Mn
_chemical_formula_sum   Mn16
_cell_volume   562.25030603
_cell_formula_units_Z   16
loop_
 _symmetry_equiv_pos_site_id
 _symmetry_equiv_pos_as_xyz
  1  'x, y, z'
loop_
 _atom_site_type_symbol
 _atom_site_label
 _atom_site_symmetry_multiplicity
 _atom_site_fract_x
 _atom_site_fract_y
 _atom_site_fract_z
 _atom_site_occupancy
  Mn  Mn0  1  0.24362700  0.36302700  0.12600300  1.0
  Mn  Mn1  1  0.49751700  0.75759000  0.25510700  1.0
  Mn  Mn2  1  0.76297600  0.88237600  0.12600300  1.0
  Mn  Mn3  1  0.69056200  0.83909100  0.52965300  1.0
  Mn  Mn4  1  0.74582900  0.12843300  0.37891100  1.0
  Mn  Mn5  1  0.82003000  0.40742700  0.22745700  1.0
  Mn  Mn6  1  0.18768800  0.58628900  0.77397700  1.0
  Mn  Mn7  1  0.25047800  0.63308200  0.37891100  1.0
  Mn  Mn8  1  0.24386200  0.87755100  0.62392300  1.0
  Mn  Mn9  1  0.30339900  0.16781100  0.47121000  1.0
  Mn  Mn10  1  0.74637200  0.38006100  0.62392300  1.0
  Mn  Mn11  1  0.25532800  0.12484100  0.86911900  1.0
  Mn  Mn12  1  0.74427800  0.61379100  0.86911900  1.0
  Mn  Mn13  1  0.80240000  0.91810300  0.72050300  1.0
  Mn  Mn14  1  0.99437800  0.00437600  0.99875400  1.0
  Mn  Mn15  1  0.31461000  0.66068000  0.97529000  1.0
