# generated using pymatgen
data_Mn
_symmetry_space_group_name_H-M   'P 1'
_cell_length_a   5.81569036
_cell_length_b   5.81775162
_cell_length_c   14.32631399
_cell_angle_alpha   89.86317032
_cell_angle_beta   89.72042898
_cell_angle_gamma   60.02496831
_symmetry_Int_Tables_number   1
_chemical_formula_structural   Mn
_chemical_formula_sum   Mn12
_cell_volume   419.88038780
_cell_formula_units_Z   12
loop_
 _symmetry_equiv_pos_site_id
 _symmetry_equiv_pos_as_xyz
  1  'x, y, z'
loop_
 _atom_site_type_symbol
 _atom_site_label
 _atom_site_symmetry_multiplicity
 _atom_site_fract_x
 _atom_site_fract_y
 _atom_site_fract_z
 _atom_site_occupancy
  Mn  Mn0  1  0.66227700  0.67542200  0.83191100  1.0
  Mn  Mn1  1  0.50079600  0.49917700  0.50112300  1.0
  Mn  Mn2  1  0.83403100  0.33357900  0.66768400  1.0
  Mn  Mn3  1  0.66149500  0.16193700  0.83255100  1.0
  Mn  Mn4  1  0.99983600  0.00023200  0.50101700  1.0
  Mn  Mn5  1  0.17365800  0.16331900  0.83121100  1.0
  Mn  Mn6  1  0.16626100  0.66504400  0.33615600  1.0
  Mn  Mn7  1  0.99974200  0.49915400  0.50115300  1.0
  Mn  Mn8  1  0.33333300  0.33346200  0.16892700  1.0
  Mn  Mn9  1  0.33216200  0.83256800  0.16985600  1.0
  Mn  Mn10  1  0.83261300  0.83399100  0.16897300  1.0
  Mn  Mn11  1  0.83669900  0.33572800  0.04487700  1.0
