# generated using pymatgen
data_Mn
_symmetry_space_group_name_H-M   'P 1'
_cell_length_a   2.92542700
_cell_length_b   9.45641400
_cell_length_c   9.57079002
_cell_angle_alpha   91.96779261
_cell_angle_beta   90.00000000
_cell_angle_gamma   90.00000000
_symmetry_Int_Tables_number   1
_chemical_formula_structural   Mn
_chemical_formula_sum   Mn6
_cell_volume   264.61066611
_cell_formula_units_Z   6
loop_
 _symmetry_equiv_pos_site_id
 _symmetry_equiv_pos_as_xyz
  1  'x, y, z'
loop_
 _atom_site_type_symbol
 _atom_site_label
 _atom_site_symmetry_multiplicity
 _atom_site_fract_x
 _atom_site_fract_y
 _atom_site_fract_z
 _atom_site_occupancy
  Mn  Mn0  1  0.50000000  0.00000000  0.50000000  1.0
  Mn  Mn1  1  1.00000000  0.01064700  0.76549700  1.0
  Mn  Mn2  1  1.00000000  0.98935300  0.23450300  1.0
  Mn  Mn3  1  0.00000000  0.50000000  0.00000000  1.0
  Mn  Mn4  1  0.50000000  0.76714200  0.98150700  1.0
  Mn  Mn5  1  0.50000000  0.23285800  0.01849300  1.0
