# generated using pymatgen
data_Mn
_symmetry_space_group_name_H-M   'P 1'
_cell_length_a   2.89978200
_cell_length_b   4.93172825
_cell_length_c   9.59006000
_cell_angle_alpha   90.00000000
_cell_angle_beta   90.00000000
_cell_angle_gamma   107.09713168
_symmetry_Int_Tables_number   1
_chemical_formula_structural   Mn
_chemical_formula_sum   Mn4
_cell_volume   131.08601235
_cell_formula_units_Z   4
loop_
 _symmetry_equiv_pos_site_id
 _symmetry_equiv_pos_as_xyz
  1  'x, y, z'
loop_
 _atom_site_type_symbol
 _atom_site_label
 _atom_site_symmetry_multiplicity
 _atom_site_fract_x
 _atom_site_fract_y
 _atom_site_fract_z
 _atom_site_occupancy
  Mn  Mn0  1  0.86507300  0.73014600  0.57622800  1.0
  Mn  Mn1  1  0.13492700  0.26985400  0.07622800  1.0
  Mn  Mn2  1  0.13492700  0.26985400  0.42377200  1.0
  Mn  Mn3  1  0.86507300  0.73014600  0.92377200  1.0
