# generated using pymatgen
data_Mn
_symmetry_space_group_name_H-M   'P 1'
_cell_length_a   2.92510505
_cell_length_b   7.16410455
_cell_length_c   7.16540627
_cell_angle_alpha   87.57482287
_cell_angle_beta   78.25127452
_cell_angle_gamma   78.24361042
_symmetry_Int_Tables_number   1
_chemical_formula_structural   Mn
_chemical_formula_sum   Mn4
_cell_volume   143.92681005
_cell_formula_units_Z   4
loop_
 _symmetry_equiv_pos_site_id
 _symmetry_equiv_pos_as_xyz
  1  'x, y, z'
loop_
 _atom_site_type_symbol
 _atom_site_label
 _atom_site_symmetry_multiplicity
 _atom_site_fract_x
 _atom_site_fract_y
 _atom_site_fract_z
 _atom_site_occupancy
  Mn  Mn0  1  0.34828000  0.48330300  0.81689600  1.0
  Mn  Mn1  1  0.83294000  0.81667800  0.51353000  1.0
  Mn  Mn2  1  0.16590100  0.18022700  0.48367300  1.0
  Mn  Mn3  1  0.65058000  0.51390700  0.18031800  1.0
