# generated using pymatgen
data_Mn
_symmetry_space_group_name_H-M   'P 1'
_cell_length_a   3.20501000
_cell_length_b   9.80941100
_cell_length_c   10.19612000
_cell_angle_alpha   90.00008022
_cell_angle_beta   90.00004035
_cell_angle_gamma   89.99999416
_symmetry_Int_Tables_number   1
_chemical_formula_structural   Mn
_chemical_formula_sum   Mn8
_cell_volume   320.55847123
_cell_formula_units_Z   8
loop_
 _symmetry_equiv_pos_site_id
 _symmetry_equiv_pos_as_xyz
  1  'x, y, z'
loop_
 _atom_site_type_symbol
 _atom_site_label
 _atom_site_symmetry_multiplicity
 _atom_site_fract_x
 _atom_site_fract_y
 _atom_site_fract_z
 _atom_site_occupancy
  Mn  Mn0  1  0.20371700  0.06873700  0.11187300  1.0
  Mn  Mn1  1  0.79629300  0.43126200  0.61187500  1.0
  Mn  Mn2  1  0.20369500  0.93126400  0.38812500  1.0
  Mn  Mn3  1  0.79629300  0.56873800  0.88812700  1.0
  Mn  Mn4  1  0.20383300  0.56878200  0.38814900  1.0
  Mn  Mn5  1  0.79616300  0.06878100  0.61185000  1.0
  Mn  Mn6  1  0.20384100  0.43121700  0.11185000  1.0
  Mn  Mn7  1  0.79616900  0.93121900  0.88814900  1.0
