# generated using pymatgen
data_Mn
_symmetry_space_group_name_H-M   'P 1'
_cell_length_a   3.14650800
_cell_length_b   5.30961343
_cell_length_c   9.79372100
_cell_angle_alpha   90.00000000
_cell_angle_beta   90.00000000
_cell_angle_gamma   107.23568303
_symmetry_Int_Tables_number   1
_chemical_formula_structural   Mn
_chemical_formula_sum   Mn4
_cell_volume   156.27359198
_cell_formula_units_Z   4
loop_
 _symmetry_equiv_pos_site_id
 _symmetry_equiv_pos_as_xyz
  1  'x, y, z'
loop_
 _atom_site_type_symbol
 _atom_site_label
 _atom_site_symmetry_multiplicity
 _atom_site_fract_x
 _atom_site_fract_y
 _atom_site_fract_z
 _atom_site_occupancy
  Mn  Mn0  1  0.86322400  0.72644800  0.93124400  1.0
  Mn  Mn1  1  0.13677600  0.27355200  0.06875600  1.0
  Mn  Mn2  1  0.86322400  0.72644800  0.56875600  1.0
  Mn  Mn3  1  0.13677600  0.27355200  0.43124400  1.0
