# generated using pymatgen
data_Mn
_symmetry_space_group_name_H-M   'P 1'
_cell_length_a   6.05420500
_cell_length_b   6.47265827
_cell_length_c   15.56623652
_cell_angle_alpha   93.84942794
_cell_angle_beta   90.19072695
_cell_angle_gamma   117.81207565
_symmetry_Int_Tables_number   1
_chemical_formula_structural   Mn
_chemical_formula_sum   Mn12
_cell_volume   537.89409324
_cell_formula_units_Z   12
loop_
 _symmetry_equiv_pos_site_id
 _symmetry_equiv_pos_as_xyz
  1  'x, y, z'
loop_
 _atom_site_type_symbol
 _atom_site_label
 _atom_site_symmetry_multiplicity
 _atom_site_fract_x
 _atom_site_fract_y
 _atom_site_fract_z
 _atom_site_occupancy
  Mn  Mn0  1  0.33217200  0.66396900  0.83406100  1.0
  Mn  Mn1  1  0.83515800  0.66848200  0.83380300  1.0
  Mn  Mn2  1  0.99204400  0.98159300  0.49772000  1.0
  Mn  Mn3  1  0.83726800  0.17898000  0.83178800  1.0
  Mn  Mn4  1  0.49176700  0.98769000  0.49628000  1.0
  Mn  Mn5  1  0.32789500  0.15920000  0.33511200  1.0
  Mn  Mn6  1  0.32423500  0.16420200  0.71939600  1.0
  Mn  Mn7  1  0.66794300  0.33812800  0.16936200  1.0
  Mn  Mn8  1  0.49903400  0.49808700  0.48971600  1.0
  Mn  Mn9  1  0.17026700  0.33763300  0.16923100  1.0
  Mn  Mn10  1  0.17797900  0.85280500  0.17268400  1.0
  Mn  Mn11  1  0.67530800  0.84618100  0.04771600  1.0
