# generated using pymatgen
data_Mn
_symmetry_space_group_name_H-M   'P 1'
_cell_length_a   6.21310253
_cell_length_b   6.21358842
_cell_length_c   6.34676959
_cell_angle_alpha   118.23962590
_cell_angle_beta   91.75439966
_cell_angle_gamma   119.02879205
_symmetry_Int_Tables_number   1
_chemical_formula_structural   Mn
_chemical_formula_sum   Mn4
_cell_volume   177.64579779
_cell_formula_units_Z   4
loop_
 _symmetry_equiv_pos_site_id
 _symmetry_equiv_pos_as_xyz
  1  'x, y, z'
loop_
 _atom_site_type_symbol
 _atom_site_label
 _atom_site_symmetry_multiplicity
 _atom_site_fract_x
 _atom_site_fract_y
 _atom_site_fract_z
 _atom_site_occupancy
  Mn  Mn0  1  0.62790750  0.25579650  0.37865450  1.0
  Mn  Mn1  1  0.62547900  0.74670700  0.37207850  1.0
  Mn  Mn2  1  0.12266600  0.75065500  0.37869650  1.0
  Mn  Mn3  1  0.24639850  0.47263850  0.71892750  1.0
