# generated using pymatgen
data_Mn
_symmetry_space_group_name_H-M   'P 1'
_cell_length_a   6.25345600
_cell_length_b   6.36047061
_cell_length_c   20.74240859
_cell_angle_alpha   82.44586128
_cell_angle_beta   81.33013852
_cell_angle_gamma   60.55502157
_symmetry_Int_Tables_number   1
_chemical_formula_structural   Mn
_chemical_formula_sum   Mn16
_cell_volume   708.66941762
_cell_formula_units_Z   16
loop_
 _symmetry_equiv_pos_site_id
 _symmetry_equiv_pos_as_xyz
  1  'x, y, z'
loop_
 _atom_site_type_symbol
 _atom_site_label
 _atom_site_symmetry_multiplicity
 _atom_site_fract_x
 _atom_site_fract_y
 _atom_site_fract_z
 _atom_site_occupancy
  Mn  Mn0  1  0.12314000  0.12389300  0.12453200  1.0
  Mn  Mn1  1  0.25389900  0.24260000  0.24960200  1.0
  Mn  Mn2  1  0.62843500  0.12389300  0.12453200  1.0
  Mn  Mn3  1  0.14669700  0.16977900  0.53682700  1.0
  Mn  Mn4  1  0.37013700  0.37499200  0.37309200  1.0
  Mn  Mn5  1  0.60583500  0.56718700  0.22114300  1.0
  Mn  Mn6  1  0.39252000  0.43206200  0.78289800  1.0
  Mn  Mn7  1  0.88177900  0.37499200  0.37309200  1.0
  Mn  Mn8  1  0.62485200  0.62573500  0.62490200  1.0
  Mn  Mn9  1  0.85590200  0.82084600  0.46735000  1.0
  Mn  Mn10  1  0.12451100  0.62573500  0.62490200  1.0
  Mn  Mn11  1  0.36808900  0.87948400  0.87540200  1.0
  Mn  Mn12  1  0.87702500  0.87948400  0.87540200  1.0
  Mn  Mn13  1  0.10334900  0.07937000  0.71393200  1.0
  Mn  Mn14  1  0.99785500  0.00167200  0.00261800  1.0
  Mn  Mn15  1  0.35376200  0.32165100  0.97082500  1.0
