# generated using pymatgen
data_Mn
_symmetry_space_group_name_H-M   'P 1'
_cell_length_a   3.31949375
_cell_length_b   5.07643276
_cell_length_c   5.93758740
_cell_angle_alpha   67.78708828
_cell_angle_beta   80.31953903
_cell_angle_gamma   82.43051257
_symmetry_Int_Tables_number   1
_chemical_formula_structural   Mn
_chemical_formula_sum   Mn2
_cell_volume   91.05583767
_cell_formula_units_Z   2
loop_
 _symmetry_equiv_pos_site_id
 _symmetry_equiv_pos_as_xyz
  1  'x, y, z'
loop_
 _atom_site_type_symbol
 _atom_site_label
 _atom_site_symmetry_multiplicity
 _atom_site_fract_x
 _atom_site_fract_y
 _atom_site_fract_z
 _atom_site_occupancy
  Mn  Mn0  1  0.55504400  0.53132400  0.96001900  1.0
  Mn  Mn1  1  0.94485100  0.96869600  0.04004800  1.0
