# generated using pymatgen
data_Mn
_symmetry_space_group_name_H-M   'P 1'
_cell_length_a   5.99909600
_cell_length_b   6.56464298
_cell_length_c   15.54912230
_cell_angle_alpha   96.47954876
_cell_angle_beta   90.00000000
_cell_angle_gamma   117.18884600
_symmetry_Int_Tables_number   1
_chemical_formula_structural   Mn
_chemical_formula_sum   Mn12
_cell_volume   540.29122573
_cell_formula_units_Z   12
loop_
 _symmetry_equiv_pos_site_id
 _symmetry_equiv_pos_as_xyz
  1  'x, y, z'
loop_
 _atom_site_type_symbol
 _atom_site_label
 _atom_site_symmetry_multiplicity
 _atom_site_fract_x
 _atom_site_fract_y
 _atom_site_fract_z
 _atom_site_occupancy
  Mn  Mn0  1  0.82927500  0.15488800  0.83324400  1.0
  Mn  Mn1  1  0.33099700  0.66199400  0.82457300  1.0
  Mn  Mn2  1  0.50074300  0.50231100  0.49981100  1.0
  Mn  Mn3  1  0.32561300  0.15488800  0.83324400  1.0
  Mn  Mn4  1  0.16238900  0.32477800  0.66442400  1.0
  Mn  Mn5  1  0.00227100  0.00454200  0.49948800  1.0
  Mn  Mn6  1  0.16514000  0.83384500  0.16841400  1.0
  Mn  Mn7  1  0.00156800  0.50231100  0.49981100  1.0
  Mn  Mn8  1  0.66870500  0.83384500  0.16841400  1.0
  Mn  Mn9  1  0.83799600  0.67599200  0.33696000  1.0
  Mn  Mn10  1  0.67480200  0.34960400  0.17294800  1.0
  Mn  Mn11  1  0.17000100  0.34000200  0.04879600  1.0
