# generated using pymatgen
data_Mn
_symmetry_space_group_name_H-M   'P 1'
_cell_length_a   5.65636000
_cell_length_b   6.15183549
_cell_length_c   11.74534031
_cell_angle_alpha   89.58572163
_cell_angle_beta   90.00000000
_cell_angle_gamma   117.36965136
_symmetry_Int_Tables_number   1
_chemical_formula_structural   Mn
_chemical_formula_sum   Mn8
_cell_volume   362.93996699
_cell_formula_units_Z   8
loop_
 _symmetry_equiv_pos_site_id
 _symmetry_equiv_pos_as_xyz
  1  'x, y, z'
loop_
 _atom_site_type_symbol
 _atom_site_label
 _atom_site_symmetry_multiplicity
 _atom_site_fract_x
 _atom_site_fract_y
 _atom_site_fract_z
 _atom_site_occupancy
  Mn  Mn0  1  0.47640300  0.93819800  0.27289800  1.0
  Mn  Mn1  1  0.02510400  0.05122100  0.23120700  1.0
  Mn  Mn2  1  0.53820500  0.06180200  0.72710200  1.0
  Mn  Mn3  1  0.97388300  0.94877900  0.76879300  1.0
  Mn  Mn4  1  0.51904900  0.55514600  0.01936900  1.0
  Mn  Mn5  1  0.96390300  0.44485400  0.98063100  1.0
  Mn  Mn6  1  0.52685200  0.55356400  0.51612400  1.0
  Mn  Mn7  1  0.97328800  0.44643600  0.48387600  1.0
