# generated using pymatgen
data_Mn
_symmetry_space_group_name_H-M   'P 1'
_cell_length_a   5.16379100
_cell_length_b   6.21302792
_cell_length_c   11.17854335
_cell_angle_alpha   90.15784951
_cell_angle_beta   90.16959838
_cell_angle_gamma   92.95690552
_symmetry_Int_Tables_number   1
_chemical_formula_structural   Mn
_chemical_formula_sum   Mn8
_cell_volume   358.15814787
_cell_formula_units_Z   8
loop_
 _symmetry_equiv_pos_site_id
 _symmetry_equiv_pos_as_xyz
  1  'x, y, z'
loop_
 _atom_site_type_symbol
 _atom_site_label
 _atom_site_symmetry_multiplicity
 _atom_site_fract_x
 _atom_site_fract_y
 _atom_site_fract_z
 _atom_site_occupancy
  Mn  Mn0  1  0.49677300  0.24667600  0.48599700  1.0
  Mn  Mn1  1  0.49290000  0.24673200  0.01365100  1.0
  Mn  Mn2  1  0.50322700  0.75332400  0.51400300  1.0
  Mn  Mn3  1  0.50710000  0.75326800  0.98634900  1.0
  Mn  Mn4  1  0.00000000  0.50000000  0.50000000  1.0
  Mn  Mn5  1  0.00000000  0.00000000  0.00000000  1.0
  Mn  Mn6  1  0.00000000  0.00000000  0.50000000  1.0
  Mn  Mn7  1  0.00000000  0.50000000  0.00000000  1.0
