# generated using pymatgen
data_Mn
_symmetry_space_group_name_H-M   'P 1'
_cell_length_a   6.27310012
_cell_length_b   6.35743850
_cell_length_c   10.70582465
_cell_angle_alpha   73.65884567
_cell_angle_beta   89.02010885
_cell_angle_gamma   60.96776989
_symmetry_Int_Tables_number   1
_chemical_formula_structural   Mn
_chemical_formula_sum   Mn8
_cell_volume   354.58003461
_cell_formula_units_Z   8
loop_
 _symmetry_equiv_pos_site_id
 _symmetry_equiv_pos_as_xyz
  1  'x, y, z'
loop_
 _atom_site_type_symbol
 _atom_site_label
 _atom_site_symmetry_multiplicity
 _atom_site_fract_x
 _atom_site_fract_y
 _atom_site_fract_z
 _atom_site_occupancy
  Mn  Mn0  1  0.06554900  0.36574100  0.18580500  1.0
  Mn  Mn1  1  0.81240800  0.36979200  0.43694200  1.0
  Mn  Mn2  1  0.56829700  0.36627200  0.18651200  1.0
  Mn  Mn3  1  0.64713700  0.72107600  0.88172300  1.0
  Mn  Mn4  1  0.14585300  0.71243700  0.38083200  1.0
  Mn  Mn5  1  0.56177400  0.38457200  0.68987100  1.0
  Mn  Mn6  1  0.31645900  0.37888400  0.93806600  1.0
  Mn  Mn7  1  0.04969400  0.38904300  0.68669800  1.0
