# generated using pymatgen
data_Mn
_symmetry_space_group_name_H-M   'P 1'
_cell_length_a   6.19964830
_cell_length_b   6.24854740
_cell_length_c   11.09794576
_cell_angle_alpha   74.51224980
_cell_angle_beta   73.82219413
_cell_angle_gamma   60.26687161
_symmetry_Int_Tables_number   1
_chemical_formula_structural   Mn
_chemical_formula_sum   Mn8
_cell_volume   354.23180223
_cell_formula_units_Z   8
loop_
 _symmetry_equiv_pos_site_id
 _symmetry_equiv_pos_as_xyz
  1  'x, y, z'
loop_
 _atom_site_type_symbol
 _atom_site_label
 _atom_site_symmetry_multiplicity
 _atom_site_fract_x
 _atom_site_fract_y
 _atom_site_fract_z
 _atom_site_occupancy
  Mn  Mn0  1  0.94321700  0.43373700  0.68967800  1.0
  Mn  Mn1  1  0.43398500  0.93124100  0.19056800  1.0
  Mn  Mn2  1  0.43895200  0.94019100  0.68573900  1.0
  Mn  Mn3  1  0.93010600  0.43703500  0.18936700  1.0
  Mn  Mn4  1  0.94230900  0.93836200  0.68883100  1.0
  Mn  Mn5  1  0.43559400  0.43897100  0.18589500  1.0
  Mn  Mn6  1  0.87499700  0.88747100  0.35933600  1.0
  Mn  Mn7  1  0.37844600  0.38709600  0.85942900  1.0
