# generated using pymatgen
data_Mn
_symmetry_space_group_name_H-M   'P 1'
_cell_length_a   2.98419400
_cell_length_b   7.63466216
_cell_length_c   8.60051341
_cell_angle_alpha   70.40402416
_cell_angle_beta   80.00924366
_cell_angle_gamma   78.72973524
_symmetry_Int_Tables_number   1
_chemical_formula_structural   Mn
_chemical_formula_sum   Mn4
_cell_volume   179.79949217
_cell_formula_units_Z   4
loop_
 _symmetry_equiv_pos_site_id
 _symmetry_equiv_pos_as_xyz
  1  'x, y, z'
loop_
 _atom_site_type_symbol
 _atom_site_label
 _atom_site_symmetry_multiplicity
 _atom_site_fract_x
 _atom_site_fract_y
 _atom_site_fract_z
 _atom_site_occupancy
  Mn  Mn0  1  0.40477200  0.37587300  0.81458300  1.0
  Mn  Mn1  1  0.85291900  0.79657600  0.49758600  1.0
  Mn  Mn2  1  0.15060300  0.18116200  0.51763200  1.0
  Mn  Mn3  1  0.59784100  0.59286900  0.21144900  1.0
