# generated using pymatgen
data_Dy
_symmetry_space_group_name_H-M   'P 1'
_cell_length_a   9.24566469
_cell_length_b   9.24566469
_cell_length_c   9.24566469
_cell_angle_alpha   109.47122063
_cell_angle_beta   109.47122064
_cell_angle_gamma   109.47122064
_symmetry_Int_Tables_number   1
_chemical_formula_structural   Dy
_chemical_formula_sum   Dy16
_cell_volume   608.40465208
_cell_formula_units_Z   16
loop_
 _symmetry_equiv_pos_site_id
 _symmetry_equiv_pos_as_xyz
  1  'x, y, z'
loop_
 _atom_site_type_symbol
 _atom_site_label
 _atom_site_symmetry_multiplicity
 _atom_site_fract_x
 _atom_site_fract_y
 _atom_site_fract_z
 _atom_site_occupancy
  Dy  Dy0  1  0.53246200  0.28246200  0.25000000  1.0
  Dy  Dy1  1  0.21753800  0.25000000  0.46753800  1.0
  Dy  Dy2  1  0.25000000  0.96753800  0.71753800  1.0
  Dy  Dy3  1  0.28246200  0.75000000  0.03246200  1.0
  Dy  Dy4  1  0.75000000  0.53246200  0.78246200  1.0
  Dy  Dy5  1  0.96753800  0.21753800  0.75000000  1.0
  Dy  Dy6  1  0.46753800  0.71753800  0.75000000  1.0
  Dy  Dy7  1  0.78246200  0.75000000  0.53246200  1.0
  Dy  Dy8  1  0.75000000  0.03246200  0.28246200  1.0
  Dy  Dy9  1  0.71753800  0.25000000  0.96753800  1.0
  Dy  Dy10  1  0.25000000  0.46753800  0.21753800  1.0
  Dy  Dy11  1  0.03246200  0.78246200  0.25000000  1.0
  Dy  Dy12  1  0.00000000  0.50000000  0.50000000  1.0
  Dy  Dy13  1  0.00000000  0.00000000  0.00000000  1.0
  Dy  Dy14  1  0.50000000  1.00000000  0.50000000  1.0
  Dy  Dy15  1  0.50000000  0.50000000  1.00000000  1.0
