# generated using pymatgen
data_Dy
_symmetry_space_group_name_H-M   'P 1'
_cell_length_a   3.50684200
_cell_length_b   7.25298585
_cell_length_c   8.66399353
_cell_angle_alpha   100.04074882
_cell_angle_beta   90.00000000
_cell_angle_gamma   103.98994484
_symmetry_Int_Tables_number   1
_chemical_formula_structural   Dy
_chemical_formula_sum   Dy6
_cell_volume   210.35274017
_cell_formula_units_Z   6
loop_
 _symmetry_equiv_pos_site_id
 _symmetry_equiv_pos_as_xyz
  1  'x, y, z'
loop_
 _atom_site_type_symbol
 _atom_site_label
 _atom_site_symmetry_multiplicity
 _atom_site_fract_x
 _atom_site_fract_y
 _atom_site_fract_z
 _atom_site_occupancy
  Dy  Dy0  1  0.63478200  0.26956400  0.48816200  1.0
  Dy  Dy1  1  0.69160700  0.38321400  0.13759600  1.0
  Dy  Dy2  1  0.03213300  0.06426600  0.81387600  1.0
  Dy  Dy3  1  0.36521800  0.73043600  0.51183800  1.0
  Dy  Dy4  1  0.30839300  0.61678600  0.86240400  1.0
  Dy  Dy5  1  0.96786700  0.93573400  0.18612400  1.0
