# generated using pymatgen
data_Fe
_symmetry_space_group_name_H-M   'P 1'
_cell_length_a   6.23952800
_cell_length_b   6.23952735
_cell_length_c   30.74804400
_cell_angle_alpha   90.00000000
_cell_angle_beta   90.00000000
_cell_angle_gamma   120.00000347
_symmetry_Int_Tables_number   1
_chemical_formula_structural   Fe
_chemical_formula_sum   Fe24
_cell_volume   1036.69628291
_cell_formula_units_Z   24
loop_
 _symmetry_equiv_pos_site_id
 _symmetry_equiv_pos_as_xyz
  1  'x, y, z'
loop_
 _atom_site_type_symbol
 _atom_site_label
 _atom_site_symmetry_multiplicity
 _atom_site_fract_x
 _atom_site_fract_y
 _atom_site_fract_z
 _atom_site_occupancy
  Fe  Fe0  1  0.00000000  0.00000000  0.99853400  1.0
  Fe  Fe1  1  0.66666667  0.33333333  0.16435000  1.0
  Fe  Fe2  1  0.17002700  0.34005400  0.10430200  1.0
  Fe  Fe3  1  0.65994600  0.82997300  0.10430200  1.0
  Fe  Fe4  1  0.17002700  0.82997300  0.10430200  1.0
  Fe  Fe5  1  0.83470700  0.66941400  0.27253100  1.0
  Fe  Fe6  1  0.33058600  0.16529300  0.27253100  1.0
  Fe  Fe7  1  0.83470700  0.16529300  0.27253100  1.0
  Fe  Fe8  1  0.49986500  0.99973000  0.43731800  1.0
  Fe  Fe9  1  0.66666667  0.33333333  0.35467900  1.0
  Fe  Fe10  1  0.00026900  0.50013400  0.43731800  1.0
  Fe  Fe11  1  0.49986500  0.50013400  0.43731800  1.0
  Fe  Fe12  1  0.16697600  0.33395200  0.60380900  1.0
  Fe  Fe13  1  0.33333333  0.66666667  0.52031900  1.0
  Fe  Fe14  1  0.66604900  0.83302500  0.60380900  1.0
  Fe  Fe15  1  0.16697600  0.83302500  0.60380900  1.0
  Fe  Fe16  1  0.83399900  0.66799800  0.77016800  1.0
  Fe  Fe17  1  0.00000000  0.00000000  0.68669800  1.0
  Fe  Fe18  1  0.33200200  0.16600100  0.77016800  1.0
  Fe  Fe19  1  0.83399900  0.16600100  0.77016800  1.0
  Fe  Fe20  1  0.50348400  0.00696800  0.93611600  1.0
  Fe  Fe21  1  0.66666667  0.33333333  0.85202000  1.0
  Fe  Fe22  1  0.99303200  0.49651600  0.93611600  1.0
  Fe  Fe23  1  0.50348400  0.49651600  0.93611600  1.0
