# generated using pymatgen
data_Fe
_symmetry_space_group_name_H-M   'P 1'
_cell_length_a   3.03404700
_cell_length_b   9.37785100
_cell_length_c   10.86744200
_cell_angle_alpha   90.00000000
_cell_angle_beta   90.00000000
_cell_angle_gamma   90.00000000
_symmetry_Int_Tables_number   1
_chemical_formula_structural   Fe
_chemical_formula_sum   Fe8
_cell_volume   309.20959597
_cell_formula_units_Z   8
loop_
 _symmetry_equiv_pos_site_id
 _symmetry_equiv_pos_as_xyz
  1  'x, y, z'
loop_
 _atom_site_type_symbol
 _atom_site_label
 _atom_site_symmetry_multiplicity
 _atom_site_fract_x
 _atom_site_fract_y
 _atom_site_fract_z
 _atom_site_occupancy
  Fe  Fe0  1  0.25000000  0.58422900  0.10363900  1.0
  Fe  Fe1  1  0.75000000  0.93731700  0.11361800  1.0
  Fe  Fe2  1  0.75000000  0.43731700  0.38638200  1.0
  Fe  Fe3  1  0.25000000  0.08422900  0.39636100  1.0
  Fe  Fe4  1  0.75000000  0.91577100  0.60363900  1.0
  Fe  Fe5  1  0.25000000  0.56268300  0.61361800  1.0
  Fe  Fe6  1  0.25000000  0.06268300  0.88638200  1.0
  Fe  Fe7  1  0.75000000  0.41577100  0.89636100  1.0
