# generated using pymatgen
data_Ti
_symmetry_space_group_name_H-M   'P 1'
_cell_length_a   5.22787400
_cell_length_b   8.73561700
_cell_length_c   18.60902400
_cell_angle_alpha   90.00000000
_cell_angle_beta   90.00000000
_cell_angle_gamma   90.00000000
_symmetry_Int_Tables_number   1
_chemical_formula_structural   Ti
_chemical_formula_sum   Ti8
_cell_volume   849.85002718
_cell_formula_units_Z   8
loop_
 _symmetry_equiv_pos_site_id
 _symmetry_equiv_pos_as_xyz
  1  'x, y, z'
loop_
 _atom_site_type_symbol
 _atom_site_label
 _atom_site_symmetry_multiplicity
 _atom_site_fract_x
 _atom_site_fract_y
 _atom_site_fract_z
 _atom_site_occupancy
  Ti  Ti0  1  0.62781200  0.66009100  0.12457200  1.0
  Ti  Ti1  1  0.12781200  0.83990900  0.12457200  1.0
  Ti  Ti2  1  0.12781200  0.33990900  0.37542800  1.0
  Ti  Ti3  1  0.62781200  0.16009100  0.37542800  1.0
  Ti  Ti4  1  0.37218800  0.83990900  0.62457200  1.0
  Ti  Ti5  1  0.87218800  0.66009100  0.62457200  1.0
  Ti  Ti6  1  0.37218800  0.33990900  0.87542800  1.0
  Ti  Ti7  1  0.87218800  0.16009100  0.87542800  1.0
