# generated using pymatgen
data_MnFe
_symmetry_space_group_name_H-M   'P 1'
_cell_length_a   3.45002400
_cell_length_b   6.26306800
_cell_length_c   6.26306801
_cell_angle_alpha   119.99999997
_cell_angle_beta   90.00000000
_cell_angle_gamma   90.00000000
_symmetry_Int_Tables_number   1
_chemical_formula_structural   MnFe
_chemical_formula_sum   'Mn3 Fe3'
_cell_volume   117.19983575
_cell_formula_units_Z   3
loop_
 _symmetry_equiv_pos_site_id
 _symmetry_equiv_pos_as_xyz
  1  'x, y, z'
loop_
 _atom_site_type_symbol
 _atom_site_label
 _atom_site_symmetry_multiplicity
 _atom_site_fract_x
 _atom_site_fract_y
 _atom_site_fract_z
 _atom_site_occupancy
  Mn  Mn0  1  0.50000000  0.40549400  0.40549400  1.0
  Mn  Mn1  1  0.50000000  0.59450600  0.00000000  1.0
  Mn  Mn2  1  0.50000000  0.00000000  0.59450600  1.0
  Fe  Fe3  1  0.00000000  0.74503800  0.74503800  1.0
  Fe  Fe4  1  0.00000000  0.25496200  1.00000000  1.0
  Fe  Fe5  1  1.00000000  1.00000000  0.25496200  1.0
