# generated using pymatgen
data_FeRe
_symmetry_space_group_name_H-M   'P 1'
_cell_length_a   5.62756917
_cell_length_b   5.64968994
_cell_length_c   5.69513965
_cell_angle_alpha   119.54015665
_cell_angle_beta   119.41698474
_cell_angle_gamma   90.34203844
_symmetry_Int_Tables_number   1
_chemical_formula_structural   FeRe
_chemical_formula_sum   'Fe1 Re1'
_cell_volume   129.65913466
_cell_formula_units_Z   1
loop_
 _symmetry_equiv_pos_site_id
 _symmetry_equiv_pos_as_xyz
  1  'x, y, z'
loop_
 _atom_site_type_symbol
 _atom_site_label
 _atom_site_symmetry_multiplicity
 _atom_site_fract_x
 _atom_site_fract_y
 _atom_site_fract_z
 _atom_site_occupancy
  Fe  Fe0  1  0.49993575  0.49995925  0.99993600  1.0
  Re  Re1  1  0.00006700  0.00008650  0.00011600  1.0
