# generated using pymatgen
data_Cr
_symmetry_space_group_name_H-M   'P 1'
_cell_length_a   5.56758233
_cell_length_b   5.56756803
_cell_length_c   9.76359338
_cell_angle_alpha   73.72882512
_cell_angle_beta   73.72870368
_cell_angle_gamma   60.18539801
_symmetry_Int_Tables_number   1
_chemical_formula_structural   Cr
_chemical_formula_sum   Cr4
_cell_volume   248.44169518
_cell_formula_units_Z   4
loop_
 _symmetry_equiv_pos_site_id
 _symmetry_equiv_pos_as_xyz
  1  'x, y, z'
loop_
 _atom_site_type_symbol
 _atom_site_label
 _atom_site_symmetry_multiplicity
 _atom_site_fract_x
 _atom_site_fract_y
 _atom_site_fract_z
 _atom_site_occupancy
  Cr  Cr0  1  0.50000700  0.99999600  0.99999400  1.0
  Cr  Cr1  1  0.99999900  0.50000200  0.50000200  1.0
  Cr  Cr2  1  0.76184600  0.23815600  0.25000000  1.0
  Cr  Cr3  1  0.23815800  0.76183900  0.74999900  1.0
