# generated using pymatgen
data_Fe2Cu
_symmetry_space_group_name_H-M   'P 1'
_cell_length_a   5.97388687
_cell_length_b   6.01204236
_cell_length_c   6.02222793
_cell_angle_alpha   119.62518146
_cell_angle_beta   119.41458035
_cell_angle_gamma   90.55799419
_symmetry_Int_Tables_number   1
_chemical_formula_structural   Fe2Cu
_chemical_formula_sum   'Fe4 Cu2'
_cell_volume   154.40373849
_cell_formula_units_Z   2
loop_
 _symmetry_equiv_pos_site_id
 _symmetry_equiv_pos_as_xyz
  1  'x, y, z'
loop_
 _atom_site_type_symbol
 _atom_site_label
 _atom_site_symmetry_multiplicity
 _atom_site_fract_x
 _atom_site_fract_y
 _atom_site_fract_z
 _atom_site_occupancy
  Fe  Fe0  1  0.62500000  0.87500000  0.25000000  1.0
  Fe  Fe1  1  0.99395400  0.99395400  0.98790800  1.0
  Fe  Fe2  1  0.25604600  0.75604600  0.51209200  1.0
  Fe  Fe3  1  0.62500000  0.37500000  0.25000000  1.0
  Cu  Cu4  1  0.62500000  0.37500000  0.75000000  1.0
  Cu  Cu5  1  0.12500000  0.37500000  0.75000000  1.0
