# generated using pymatgen
data_Fe2Cu
_symmetry_space_group_name_H-M   'P 1'
_cell_length_a   5.97890203
_cell_length_b   6.02001023
_cell_length_c   6.02039288
_cell_angle_alpha   90.26600252
_cell_angle_beta   119.76385400
_cell_angle_gamma   119.76934882
_symmetry_Int_Tables_number   1
_chemical_formula_structural   Fe2Cu
_chemical_formula_sum   'Fe4 Cu2'
_cell_volume   153.94746336
_cell_formula_units_Z   2
loop_
 _symmetry_equiv_pos_site_id
 _symmetry_equiv_pos_as_xyz
  1  'x, y, z'
loop_
 _atom_site_type_symbol
 _atom_site_label
 _atom_site_symmetry_multiplicity
 _atom_site_fract_x
 _atom_site_fract_y
 _atom_site_fract_z
 _atom_site_occupancy
  Fe  Fe0  1  0.74998600  0.37497500  0.12500400  1.0
  Fe  Fe1  1  0.25001000  0.87499900  0.62500200  1.0
  Fe  Fe2  1  0.75002100  0.37500500  0.62500700  1.0
  Fe  Fe3  1  0.24999200  0.37500100  0.62502000  1.0
  Cu  Cu4  1  0.99994900  0.99649900  0.00343400  1.0
  Cu  Cu5  1  0.50002800  0.75333300  0.24675900  1.0
