# generated using pymatgen
data_Co
_symmetry_space_group_name_H-M   'P 1'
_cell_length_a   10.04904476
_cell_length_b   10.17319195
_cell_length_c   10.37096020
_cell_angle_alpha   94.54368623
_cell_angle_beta   95.98921380
_cell_angle_gamma   96.03318743
_symmetry_Int_Tables_number   1
_chemical_formula_structural   Co
_chemical_formula_sum   Co40
_cell_volume   1044.23598593
_cell_formula_units_Z   40
loop_
 _symmetry_equiv_pos_site_id
 _symmetry_equiv_pos_as_xyz
  1  'x, y, z'
loop_
 _atom_site_type_symbol
 _atom_site_label
 _atom_site_symmetry_multiplicity
 _atom_site_fract_x
 _atom_site_fract_y
 _atom_site_fract_z
 _atom_site_occupancy
  Co  Co0  1  0.33990238  0.19107218  0.92734503  1.0
  Co  Co1  1  0.01934835  0.65563842  0.27758928  1.0
  Co  Co2  1  0.26433707  0.95017580  0.95485589  1.0
  Co  Co3  1  0.46980150  0.42847784  0.74101739  1.0
  Co  Co4  1  0.99493080  0.99799812  0.46774078  1.0
  Co  Co5  1  0.67324852  0.60271605  0.50219692  1.0
  Co  Co6  1  0.02643781  0.93119793  0.14758665  1.0
  Co  Co7  1  0.72086824  0.24810240  0.10490722  1.0
  Co  Co8  1  0.80070614  0.71699412  0.32938120  1.0
  Co  Co9  1  0.18066359  0.44577213  0.87502872  1.0
  Co  Co10  1  0.17245942  0.93498723  0.65889502  1.0
  Co  Co11  1  0.62992523  0.49798246  0.18051625  1.0
  Co  Co12  1  0.24620703  0.06047262  0.37618520  1.0
  Co  Co13  1  0.73379683  0.94325811  0.96351650  1.0
  Co  Co14  1  0.83290241  0.38771312  0.37077672  1.0
  Co  Co15  1  0.23978976  0.36396578  0.43115661  1.0
  Co  Co16  1  0.48428964  0.78336493  0.25134055  1.0
  Co  Co17  1  0.47424373  0.90000281  0.53871547  1.0
  Co  Co18  1  0.72706699  0.04501997  0.36092961  1.0
  Co  Co19  1  0.31339337  0.46819928  0.13745956  1.0
  Co  Co20  1  0.50376954  0.64591636  0.96982398  1.0
  Co  Co21  1  0.87831180  0.40928445  0.77805037  1.0
  Co  Co22  1  0.58120758  0.10864287  0.79794840  1.0
  Co  Co23  1  0.50790882  0.09359100  0.14357541  1.0
  Co  Co24  1  0.99786365  0.20401303  0.64845225  1.0
  Co  Co25  1  0.95022025  0.51238232  0.05034190  1.0
  Co  Co26  1  0.93187690  0.17657071  0.95621693  1.0
  Co  Co27  1  0.60217463  0.78644812  0.73650778  1.0
  Co  Co28  1  0.07873953  0.50069433  0.55317551  1.0
  Co  Co29  1  0.16242275  0.72849495  0.05403464  1.0
  Co  Co30  1  0.24167508  0.75900692  0.37495993  1.0
  Co  Co31  1  0.68405989  0.24929171  0.59604036  1.0
  Co  Co32  1  0.35200090  0.15823282  0.62523670  1.0
  Co  Co33  1  0.71635852  0.59443721  0.82436969  1.0
  Co  Co34  1  0.41002419  0.60203263  0.49623729  1.0
  Co  Co35  1  0.79730583  0.94169408  0.61648449  1.0
  Co  Co36  1  0.96097217  0.72509484  0.74051447  1.0
  Co  Co37  1  0.28385174  0.68261007  0.75548456  1.0
  Co  Co38  1  0.98372260  0.22402439  0.24735187  1.0
  Co  Co39  1  0.49842044  0.33500875  0.35748613  1.0
