# generated using pymatgen
data_Co
_symmetry_space_group_name_H-M   'P 1'
_cell_length_a   3.26227699
_cell_length_b   3.26227715
_cell_length_c   5.28898000
_cell_angle_alpha   89.99945716
_cell_angle_beta   89.99943427
_cell_angle_gamma   60.14589838
_symmetry_Int_Tables_number   1
_chemical_formula_structural   Co
_chemical_formula_sum   Co2
_cell_volume   48.81809789
_cell_formula_units_Z   2
loop_
 _symmetry_equiv_pos_site_id
 _symmetry_equiv_pos_as_xyz
  1  'x, y, z'
loop_
 _atom_site_type_symbol
 _atom_site_label
 _atom_site_symmetry_multiplicity
 _atom_site_fract_x
 _atom_site_fract_y
 _atom_site_fract_z
 _atom_site_occupancy
  Co  Co0  1  0.66627450  0.66627250  0.00151600  1.0
  Co  Co1  1  0.33372950  0.33373050  0.50151450  1.0
