# generated using pymatgen
data_Co
_symmetry_space_group_name_H-M   'P 1'
_cell_length_a   10.03293133
_cell_length_b   10.21236637
_cell_length_c   10.26261537
_cell_angle_alpha   84.06978760
_cell_angle_beta   89.90617072
_cell_angle_gamma   86.16193491
_symmetry_Int_Tables_number   1
_chemical_formula_structural   Co
_chemical_formula_sum   Co40
_cell_volume   1043.51966217
_cell_formula_units_Z   40
loop_
 _symmetry_equiv_pos_site_id
 _symmetry_equiv_pos_as_xyz
  1  'x, y, z'
loop_
 _atom_site_type_symbol
 _atom_site_label
 _atom_site_symmetry_multiplicity
 _atom_site_fract_x
 _atom_site_fract_y
 _atom_site_fract_z
 _atom_site_occupancy
  Co  Co0  1  0.15262752  0.82104037  0.73181512  1.0
  Co  Co1  1  0.53348610  0.35985782  0.77414832  1.0
  Co  Co2  1  0.05515065  0.10888424  0.64646505  1.0
  Co  Co3  1  0.53295112  0.52016423  0.47799667  1.0
  Co  Co4  1  0.65732542  0.94214818  0.10324608  1.0
  Co  Co5  1  0.67653136  0.03875710  0.36170048  1.0
  Co  Co6  1  0.56122421  0.00696372  0.66159077  1.0
  Co  Co7  1  0.98146433  0.57009164  0.36928164  1.0
  Co  Co8  1  0.73305291  0.39689919  0.98762183  1.0
  Co  Co9  1  0.02451738  0.56180908  0.82938046  1.0
  Co  Co10  1  0.15791459  0.02103530  0.97129656  1.0
  Co  Co11  1  0.56040498  0.27198357  0.26571145  1.0
  Co  Co12  1  0.45869790  0.14964786  0.97992445  1.0
  Co  Co13  1  0.05082303  0.37761489  0.12825954  1.0
  Co  Co14  1  0.63835562  0.54369278  0.18968676  1.0
  Co  Co15  1  0.55133835  0.74957752  0.65189097  1.0
  Co  Co16  1  0.88696149  0.26201284  0.43027236  1.0
  Co  Co17  1  0.37393802  0.95205762  0.48665284  1.0
  Co  Co18  1  0.96695470  0.86090151  0.22356927  1.0
  Co  Co19  1  0.82204972  0.86746615  0.75931181  1.0
  Co  Co20  1  0.77850365  0.55439296  0.66041386  1.0
  Co  Co21  1  0.56841009  0.67599325  0.92297775  1.0
  Co  Co22  1  0.26701430  0.72967837  0.40394680  1.0
  Co  Co23  1  0.02597113  0.92499822  0.47800258  1.0
  Co  Co24  1  0.22552947  0.68297717  0.01535362  1.0
  Co  Co25  1  0.93939285  0.28509104  0.82490605  1.0
  Co  Co26  1  0.87238259  0.11463278  0.10487323  1.0
  Co  Co27  1  0.34601533  0.60316282  0.71634732  1.0
  Co  Co28  1  0.27866267  0.46484970  0.29614116  1.0
  Co  Co29  1  0.70772998  0.06636151  0.88530068  1.0
  Co  Co30  1  0.70953826  0.23300673  0.62780233  1.0
  Co  Co31  1  0.47756854  0.75747912  0.20709890  1.0
  Co  Co32  1  0.38599198  0.90566456  0.81182638  1.0
  Co  Co33  1  0.15800821  0.24212131  0.40200824  1.0
  Co  Co34  1  0.39373300  0.25399367  0.51316965  1.0
  Co  Co35  1  0.36612735  0.04590735  0.22693457  1.0
  Co  Co36  1  0.39120211  0.44641540  0.00638583  1.0
  Co  Co37  1  0.23693662  0.26933201  0.76089537  1.0
  Co  Co38  1  0.86672580  0.71154192  0.03291898  1.0
  Co  Co39  1  0.71105837  0.75025798  0.43366150  1.0
