# generated using pymatgen
data_Co
_symmetry_space_group_name_H-M   'P 1'
_cell_length_a   10.01540327
_cell_length_b   10.08110670
_cell_length_c   10.17928995
_cell_angle_alpha   89.99872634
_cell_angle_beta   87.48147516
_cell_angle_gamma   84.67099091
_symmetry_Int_Tables_number   1
_chemical_formula_structural   Co
_chemical_formula_sum   Co40
_cell_volume   1022.32656198
_cell_formula_units_Z   40
loop_
 _symmetry_equiv_pos_site_id
 _symmetry_equiv_pos_as_xyz
  1  'x, y, z'
loop_
 _atom_site_type_symbol
 _atom_site_label
 _atom_site_symmetry_multiplicity
 _atom_site_fract_x
 _atom_site_fract_y
 _atom_site_fract_z
 _atom_site_occupancy
  Co  Co0  1  0.06203339  0.35077612  0.96940701  1.0
  Co  Co1  1  0.59747353  0.01763179  0.41196556  1.0
  Co  Co2  1  0.13884630  0.05065786  0.33677679  1.0
  Co  Co3  1  0.71142817  0.68918649  0.94177643  1.0
  Co  Co4  1  0.99913851  0.14465991  0.83004648  1.0
  Co  Co5  1  0.55464373  0.87600944  0.70857166  1.0
  Co  Co6  1  0.84666291  0.95599970  0.17486808  1.0
  Co  Co7  1  0.36714820  0.66060902  0.72429559  1.0
  Co  Co8  1  0.52314270  0.50490589  0.26946652  1.0
  Co  Co9  1  0.32794922  0.94253188  0.52869679  1.0
  Co  Co10  1  0.06033389  0.32671250  0.56725192  1.0
  Co  Co11  1  0.15659680  0.63612419  0.85139734  1.0
  Co  Co12  1  0.63540902  0.20548764  0.74568180  1.0
  Co  Co13  1  0.93195001  0.82302306  0.92988217  1.0
  Co  Co14  1  0.66037054  0.77408955  0.20734107  1.0
  Co  Co15  1  0.65165158  0.31442469  0.47129325  1.0
  Co  Co16  1  0.30454013  0.44328147  0.05163893  1.0
  Co  Co17  1  0.56611218  0.65936639  0.47545678  1.0
  Co  Co18  1  0.85313233  0.22863637  0.31975735  1.0
  Co  Co19  1  0.16042063  0.89474633  0.07093675  1.0
  Co  Co20  1  0.56687670  0.47767963  0.72627929  1.0
  Co  Co21  1  0.83317873  0.99834306  0.59275112  1.0
  Co  Co22  1  0.72056474  0.44859094  0.04377909  1.0
  Co  Co23  1  0.85274969  0.19315086  0.02581368  1.0
  Co  Co24  1  0.84522806  0.41818530  0.77478401  1.0
  Co  Co25  1  0.44726793  0.71401497  0.01130780  1.0
  Co  Co26  1  0.66306882  0.99747546  0.93469284  1.0
  Co  Co27  1  0.98038926  0.60021454  0.10013614  1.0
  Co  Co28  1  0.45115866  0.99088199  0.17182553  1.0
  Co  Co29  1  0.32120349  0.11077689  0.94444573  1.0
  Co  Co30  1  0.35747658  0.26587993  0.34735130  1.0
  Co  Co31  1  0.96506565  0.67753860  0.60033350  1.0
  Co  Co32  1  0.07429479  0.36348937  0.29643327  1.0
  Co  Co33  1  0.02036899  0.80776526  0.37376644  1.0
  Co  Co34  1  0.35400001  0.78246797  0.32058872  1.0
  Co  Co35  1  0.21914157  0.55341207  0.48192050  1.0
  Co  Co36  1  0.13111819  0.91684551  0.74141825  1.0
  Co  Co37  1  0.27374067  0.35686369  0.75893493  1.0
  Co  Co38  1  0.56643263  0.21916471  0.16012227  1.0
  Co  Co39  1  0.86900565  0.50791038  0.42598595  1.0
