# generated using pymatgen
data_Mn
_symmetry_space_group_name_H-M   'P 1'
_cell_length_a   5.89500441
_cell_length_b   5.89500441
_cell_length_c   5.93775421
_cell_angle_alpha   60.23788015
_cell_angle_beta   60.23788015
_cell_angle_gamma   59.99999543
_symmetry_Int_Tables_number   1
_chemical_formula_structural   Mn
_chemical_formula_sum   Mn4
_cell_volume   146.42919691
_cell_formula_units_Z   4
loop_
 _symmetry_equiv_pos_site_id
 _symmetry_equiv_pos_as_xyz
  1  'x, y, z'
loop_
 _atom_site_type_symbol
 _atom_site_label
 _atom_site_symmetry_multiplicity
 _atom_site_fract_x
 _atom_site_fract_y
 _atom_site_fract_z
 _atom_site_occupancy
  Mn  Mn0  1  0.99421100  0.50100100  0.00378700  1.0
  Mn  Mn1  1  0.50100100  0.99421100  0.00378700  1.0
  Mn  Mn2  1  0.50100100  0.50100100  0.00378700  1.0
  Mn  Mn3  1  0.11863600  0.11863600  0.64409200  1.0
