# generated using pymatgen
data_Mn
_symmetry_space_group_name_H-M   'P 1'
_cell_length_a   6.63487500
_cell_length_b   6.64773432
_cell_length_c   11.00261515
_cell_angle_alpha   94.07718060
_cell_angle_beta   105.88685995
_cell_angle_gamma   98.53524598
_symmetry_Int_Tables_number   1
_chemical_formula_structural   Mn
_chemical_formula_sum   Mn12
_cell_volume   458.38995056
_cell_formula_units_Z   12
loop_
 _symmetry_equiv_pos_site_id
 _symmetry_equiv_pos_as_xyz
  1  'x, y, z'
loop_
 _atom_site_type_symbol
 _atom_site_label
 _atom_site_symmetry_multiplicity
 _atom_site_fract_x
 _atom_site_fract_y
 _atom_site_fract_z
 _atom_site_occupancy
  Mn  Mn0  1  0.91445900  0.92020500  0.25446000  1.0
  Mn  Mn1  1  0.84555300  0.82212200  0.50361800  1.0
  Mn  Mn2  1  0.66979800  0.66316300  0.00182600  1.0
  Mn  Mn3  1  0.74632500  0.75144000  0.75056600  1.0
  Mn  Mn4  1  0.57525600  0.58515000  0.24764800  1.0
  Mn  Mn5  1  0.51747700  0.48807500  0.50328900  1.0
  Mn  Mn6  1  0.32393000  0.33615700  0.99245400  1.0
  Mn  Mn7  1  0.41591400  0.42090200  0.74954200  1.0
  Mn  Mn8  1  0.23803700  0.26251200  0.24686600  1.0
  Mn  Mn9  1  0.17601800  0.16360700  0.50625900  1.0
  Mn  Mn10  1  0.99255300  0.00269000  0.99978800  1.0
  Mn  Mn11  1  0.08566300  0.07859100  0.74988400  1.0
