# generated using pymatgen
data_Mn
_symmetry_space_group_name_H-M   'P 1'
_cell_length_a   6.04904300
_cell_length_b   8.22519344
_cell_length_c   10.23470906
_cell_angle_alpha   113.69093742
_cell_angle_beta   104.10378208
_cell_angle_gamma   90.49539229
_symmetry_Int_Tables_number   1
_chemical_formula_structural   Mn
_chemical_formula_sum   Mn12
_cell_volume   448.98572934
_cell_formula_units_Z   12
loop_
 _symmetry_equiv_pos_site_id
 _symmetry_equiv_pos_as_xyz
  1  'x, y, z'
loop_
 _atom_site_type_symbol
 _atom_site_label
 _atom_site_symmetry_multiplicity
 _atom_site_fract_x
 _atom_site_fract_y
 _atom_site_fract_z
 _atom_site_occupancy
  Mn  Mn0  1  0.17148100  0.16746900  0.83448300  1.0
  Mn  Mn1  1  0.49862300  0.00077800  0.00040900  1.0
  Mn  Mn2  1  0.32367000  0.83115500  0.16080600  1.0
  Mn  Mn3  1  0.84108100  0.33403300  0.66790900  1.0
  Mn  Mn4  1  0.82376200  0.82955500  0.16124500  1.0
  Mn  Mn5  1  0.99415800  0.50074600  0.99709000  1.0
  Mn  Mn6  1  0.00179100  0.50006300  0.50097500  1.0
  Mn  Mn7  1  0.67237900  0.16792300  0.83778900  1.0
  Mn  Mn8  1  0.16056500  0.66370100  0.33195500  1.0
  Mn  Mn9  1  0.50345600  0.50165700  0.50381500  1.0
  Mn  Mn10  1  0.66360900  0.16485700  0.33480000  1.0
  Mn  Mn11  1  0.33893900  0.83248800  0.66654100  1.0
