# generated using pymatgen
data_Mn
_symmetry_space_group_name_H-M   'P 1'
_cell_length_a   5.79379855
_cell_length_b   5.83389397
_cell_length_c   6.01083446
_cell_angle_alpha   118.83498477
_cell_angle_beta   118.62219724
_cell_angle_gamma   90.31120812
_symmetry_Int_Tables_number   1
_chemical_formula_structural   Mn
_chemical_formula_sum   Mn4
_cell_volume   148.65876352
_cell_formula_units_Z   4
loop_
 _symmetry_equiv_pos_site_id
 _symmetry_equiv_pos_as_xyz
  1  'x, y, z'
loop_
 _atom_site_type_symbol
 _atom_site_label
 _atom_site_symmetry_multiplicity
 _atom_site_fract_x
 _atom_site_fract_y
 _atom_site_fract_z
 _atom_site_occupancy
  Mn  Mn0  1  0.00000000  0.99993100  0.50005000  1.0
  Mn  Mn1  1  0.00000400  0.50006900  0.00006400  1.0
  Mn  Mn2  1  0.00000400  0.50006700  0.50001900  1.0
  Mn  Mn3  1  0.50008700  0.50011400  0.00013200  1.0
