# generated using pymatgen
data_Co
_symmetry_space_group_name_H-M   'P 1'
_cell_length_a   5.43894944
_cell_length_b   5.44911835
_cell_length_c   7.01524399
_cell_angle_alpha   112.84969693
_cell_angle_beta   90.00266353
_cell_angle_gamma   89.98448384
_symmetry_Int_Tables_number   1
_chemical_formula_structural   Co
_chemical_formula_sum   Co2
_cell_volume   191.59842768
_cell_formula_units_Z   2
loop_
 _symmetry_equiv_pos_site_id
 _symmetry_equiv_pos_as_xyz
  1  'x, y, z'
loop_
 _atom_site_type_symbol
 _atom_site_label
 _atom_site_symmetry_multiplicity
 _atom_site_fract_x
 _atom_site_fract_y
 _atom_site_fract_z
 _atom_site_occupancy
  Co  Co0  1  0.99983900  0.00670000  0.01318400  1.0
  Co  Co1  1  0.49979300  0.49314900  0.98647300  1.0
