# generated using pymatgen
data_Co
_symmetry_space_group_name_H-M   'P 1'
_cell_length_a   3.86277610
_cell_length_b   3.86621867
_cell_length_c   6.82333839
_cell_angle_alpha   106.30831325
_cell_angle_beta   106.41707807
_cell_angle_gamma   90.14365400
_symmetry_Int_Tables_number   1
_chemical_formula_structural   Co
_chemical_formula_sum   Co1
_cell_volume   93.44286196
_cell_formula_units_Z   1
loop_
 _symmetry_equiv_pos_site_id
 _symmetry_equiv_pos_as_xyz
  1  'x, y, z'
loop_
 _atom_site_type_symbol
 _atom_site_label
 _atom_site_symmetry_multiplicity
 _atom_site_fract_x
 _atom_site_fract_y
 _atom_site_fract_z
 _atom_site_occupancy
  Co  Co0  1  0.00286250  0.00289650  0.00595950  1.0
