# generated using pymatgen
data_Rh
_symmetry_space_group_name_H-M   'P 1'
_cell_length_a   2.78371700
_cell_length_b   8.33409900
_cell_length_c   10.11419300
_cell_angle_alpha   90.00000000
_cell_angle_beta   90.00000000
_cell_angle_gamma   90.00000000
_symmetry_Int_Tables_number   1
_chemical_formula_structural   Rh
_chemical_formula_sum   Rh8
_cell_volume   234.64698235
_cell_formula_units_Z   8
loop_
 _symmetry_equiv_pos_site_id
 _symmetry_equiv_pos_as_xyz
  1  'x, y, z'
loop_
 _atom_site_type_symbol
 _atom_site_label
 _atom_site_symmetry_multiplicity
 _atom_site_fract_x
 _atom_site_fract_y
 _atom_site_fract_z
 _atom_site_occupancy
  Rh  Rh0  1  0.25000000  0.01295400  0.37329800  1.0
  Rh  Rh1  1  0.25000000  0.48704600  0.87329800  1.0
  Rh  Rh2  1  0.75000000  0.98704600  0.62670200  1.0
  Rh  Rh3  1  0.75000000  0.51295400  0.12670200  1.0
  Rh  Rh4  1  0.25000000  0.33309200  0.50988200  1.0
  Rh  Rh5  1  0.25000000  0.16690800  0.00988200  1.0
  Rh  Rh6  1  0.75000000  0.66690800  0.49011800  1.0
  Rh  Rh7  1  0.75000000  0.83309200  0.99011800  1.0
