# generated using pymatgen
data_Rh
_symmetry_space_group_name_H-M   'P 1'
_cell_length_a   5.22933800
_cell_length_b   5.51363400
_cell_length_c   14.96002900
_cell_angle_alpha   90.00000000
_cell_angle_beta   90.00000000
_cell_angle_gamma   90.00000000
_symmetry_Int_Tables_number   1
_chemical_formula_structural   Rh
_chemical_formula_sum   Rh16
_cell_volume   431.33736683
_cell_formula_units_Z   16
loop_
 _symmetry_equiv_pos_site_id
 _symmetry_equiv_pos_as_xyz
  1  'x, y, z'
loop_
 _atom_site_type_symbol
 _atom_site_label
 _atom_site_symmetry_multiplicity
 _atom_site_fract_x
 _atom_site_fract_y
 _atom_site_fract_z
 _atom_site_occupancy
  Rh  Rh0  1  0.49871000  0.18999500  0.07485900  1.0
  Rh  Rh1  1  0.00129000  0.81000500  0.57485900  1.0
  Rh  Rh2  1  0.50129700  0.73632600  0.67867700  1.0
  Rh  Rh3  1  0.49870300  0.23632600  0.82132300  1.0
  Rh  Rh4  1  0.99870300  0.26367400  0.17867700  1.0
  Rh  Rh5  1  0.00129700  0.76367400  0.32132300  1.0
  Rh  Rh6  1  0.50129700  0.76367400  0.17867700  1.0
  Rh  Rh7  1  0.49870300  0.26367400  0.32132300  1.0
  Rh  Rh8  1  0.99871000  0.31000500  0.92514100  1.0
  Rh  Rh9  1  0.49871000  0.31000500  0.57485900  1.0
  Rh  Rh10  1  0.99871000  0.18999500  0.42514100  1.0
  Rh  Rh11  1  0.50129000  0.68999500  0.42514100  1.0
  Rh  Rh12  1  0.99870300  0.23632600  0.67867700  1.0
  Rh  Rh13  1  0.00129700  0.73632600  0.82132300  1.0
  Rh  Rh14  1  0.00129000  0.68999500  0.07485900  1.0
  Rh  Rh15  1  0.50129000  0.81000500  0.92514100  1.0
