# generated using pymatgen
data_Rh
_symmetry_space_group_name_H-M   'P 1'
_cell_length_a   5.21014994
_cell_length_b   5.21014994
_cell_length_c   5.57731693
_cell_angle_alpha   62.15482639
_cell_angle_beta   62.15482639
_cell_angle_gamma   60.00000071
_symmetry_Int_Tables_number   1
_chemical_formula_structural   Rh
_chemical_formula_sum   Rh4
_cell_volume   110.41123066
_cell_formula_units_Z   4
loop_
 _symmetry_equiv_pos_site_id
 _symmetry_equiv_pos_as_xyz
  1  'x, y, z'
loop_
 _atom_site_type_symbol
 _atom_site_label
 _atom_site_symmetry_multiplicity
 _atom_site_fract_x
 _atom_site_fract_y
 _atom_site_fract_z
 _atom_site_occupancy
  Rh  Rh0  1  0.84943500  0.84943500  0.45169500  1.0
  Rh  Rh1  1  0.65056500  0.65056500  0.04830500  1.0
  Rh  Rh2  1  0.15056500  0.15056500  0.54830500  1.0
  Rh  Rh3  1  0.34943500  0.34943500  0.95169500  1.0
