# generated using pymatgen
data_Ta
_symmetry_space_group_name_H-M   'P 1'
_cell_length_a   5.34679500
_cell_length_b   10.24759500
_cell_length_c   10.24759500
_cell_angle_alpha   90.00000000
_cell_angle_beta   90.00000000
_cell_angle_gamma   90.00000000
_symmetry_Int_Tables_number   1
_chemical_formula_structural   Ta
_chemical_formula_sum   Ta30
_cell_volume   561.48407025
_cell_formula_units_Z   30
loop_
 _symmetry_equiv_pos_site_id
 _symmetry_equiv_pos_as_xyz
  1  'x, y, z'
loop_
 _atom_site_type_symbol
 _atom_site_label
 _atom_site_symmetry_multiplicity
 _atom_site_fract_x
 _atom_site_fract_y
 _atom_site_fract_z
 _atom_site_occupancy
  Ta  Ta0  1  0.24276600  0.50000000  0.00000000  1.0
  Ta  Ta1  1  0.75723400  1.00000000  0.50000000  1.0
  Ta  Ta2  1  0.24333400  0.76132800  0.93262100  1.0
  Ta  Ta3  1  0.75666600  0.06737900  0.76132800  1.0
  Ta  Ta4  1  0.75666600  0.93262100  0.23867200  1.0
  Ta  Ta5  1  0.24333400  0.23867200  0.06737900  1.0
  Ta  Ta6  1  0.75666600  0.26132800  0.56737900  1.0
  Ta  Ta7  1  0.75666600  0.73867200  0.43262100  1.0
  Ta  Ta8  1  0.24333400  0.43262100  0.26132800  1.0
  Ta  Ta9  1  0.24333400  0.56737900  0.73867200  1.0
  Ta  Ta10  1  0.25710400  0.03477900  0.87111700  1.0
  Ta  Ta11  1  0.74289600  0.12888300  0.03477900  1.0
  Ta  Ta12  1  0.74289600  0.87111700  0.96522100  1.0
  Ta  Ta13  1  0.25710400  0.96522100  0.12888300  1.0
  Ta  Ta14  1  0.74289600  0.53477900  0.62888300  1.0
  Ta  Ta15  1  0.74289600  0.46522100  0.37111700  1.0
  Ta  Ta16  1  0.25710400  0.37111700  0.53477900  1.0
  Ta  Ta17  1  0.25710400  0.62888300  0.46522100  1.0
  Ta  Ta18  1  0.74051400  0.60481700  0.89518300  1.0
  Ta  Ta19  1  0.25948600  0.10481700  0.60481700  1.0
  Ta  Ta20  1  0.25948600  0.89518300  0.39518300  1.0
  Ta  Ta21  1  0.74051400  0.39518300  0.10481700  1.0
  Ta  Ta22  1  0.00236200  0.81898800  0.68101200  1.0
  Ta  Ta23  1  0.99763800  0.31898800  0.81898800  1.0
  Ta  Ta24  1  0.99763800  0.68101200  0.18101200  1.0
  Ta  Ta25  1  0.00236200  0.18101200  0.31898800  1.0
  Ta  Ta26  1  0.49927900  0.31871700  0.81871700  1.0
  Ta  Ta27  1  0.50072100  0.18128300  0.31871700  1.0
  Ta  Ta28  1  0.50072100  0.81871700  0.68128300  1.0
  Ta  Ta29  1  0.49927900  0.68128300  0.18128300  1.0
