# generated using pymatgen
data_Fe
_symmetry_space_group_name_H-M   'P 1'
_cell_length_a   6.02627000
_cell_length_b   6.02627008
_cell_length_c   14.75589700
_cell_angle_alpha   90.00000000
_cell_angle_beta   90.00000000
_cell_angle_gamma   119.99999957
_symmetry_Int_Tables_number   1
_chemical_formula_structural   Fe
_chemical_formula_sum   Fe12
_cell_volume   464.08061309
_cell_formula_units_Z   12
loop_
 _symmetry_equiv_pos_site_id
 _symmetry_equiv_pos_as_xyz
  1  'x, y, z'
loop_
 _atom_site_type_symbol
 _atom_site_label
 _atom_site_symmetry_multiplicity
 _atom_site_fract_x
 _atom_site_fract_y
 _atom_site_fract_z
 _atom_site_occupancy
  Fe  Fe0  1  0.16423300  0.83576700  0.16619300  1.0
  Fe  Fe1  1  0.67153400  0.83576700  0.16619300  1.0
  Fe  Fe2  1  0.49963100  0.50036800  0.49913400  1.0
  Fe  Fe3  1  0.16423300  0.32846600  0.16619300  1.0
  Fe  Fe4  1  0.33333333  0.66666667  0.33161800  1.0
  Fe  Fe5  1  0.00073700  0.50036800  0.49913400  1.0
  Fe  Fe6  1  0.83180100  0.16819900  0.83297400  1.0
  Fe  Fe7  1  0.49963100  0.99926200  0.49913400  1.0
  Fe  Fe8  1  0.83180100  0.66360200  0.83297400  1.0
  Fe  Fe9  1  0.66666667  0.33333333  0.66473800  1.0
  Fe  Fe10  1  0.33639800  0.16819900  0.83297400  1.0
  Fe  Fe11  1  0.33333333  0.66666667  0.95628700  1.0
