# generated using pymatgen
data_Fe
_symmetry_space_group_name_H-M   'P 1'
_cell_length_a   5.98783400
_cell_length_b   6.00067051
_cell_length_c   14.64181903
_cell_angle_alpha   89.60696888
_cell_angle_beta   89.93047878
_cell_angle_gamma   60.26187402
_symmetry_Int_Tables_number   1
_chemical_formula_structural   Fe
_chemical_formula_sum   Fe12
_cell_volume   456.79736114
_cell_formula_units_Z   12
loop_
 _symmetry_equiv_pos_site_id
 _symmetry_equiv_pos_as_xyz
  1  'x, y, z'
loop_
 _atom_site_type_symbol
 _atom_site_label
 _atom_site_symmetry_multiplicity
 _atom_site_fract_x
 _atom_site_fract_y
 _atom_site_fract_z
 _atom_site_occupancy
  Fe  Fe0  1  0.49763700  0.99263100  0.37876600  1.0
  Fe  Fe1  1  0.16994000  0.16477300  0.16565000  1.0
  Fe  Fe2  1  0.50049600  0.99949700  0.00259300  1.0
  Fe  Fe3  1  0.66448300  0.67005500  0.16601700  1.0
  Fe  Fe4  1  0.82774400  0.33070200  0.70975600  1.0
  Fe  Fe5  1  0.49890800  0.50052500  0.49945600  1.0
  Fe  Fe6  1  0.00031300  0.99958400  0.49981700  1.0
  Fe  Fe7  1  0.83567600  0.83289200  0.83398500  1.0
  Fe  Fe8  1  0.17216900  0.66862900  0.28889600  1.0
  Fe  Fe9  1  0.33226500  0.33766600  0.83478000  1.0
  Fe  Fe10  1  0.50232100  0.00727900  0.62299300  1.0
  Fe  Fe11  1  0.83747200  0.33762300  0.95950500  1.0
