# generated using pymatgen
data_Fe
_symmetry_space_group_name_H-M   'P 1'
_cell_length_a   2.92711900
_cell_length_b   7.66377404
_cell_length_c   8.07589670
_cell_angle_alpha   70.99536836
_cell_angle_beta   79.86064063
_cell_angle_gamma   79.14914704
_symmetry_Int_Tables_number   1
_chemical_formula_structural   Fe
_chemical_formula_sum   Fe4
_cell_volume   166.93816913
_cell_formula_units_Z   4
loop_
 _symmetry_equiv_pos_site_id
 _symmetry_equiv_pos_as_xyz
  1  'x, y, z'
loop_
 _atom_site_type_symbol
 _atom_site_label
 _atom_site_symmetry_multiplicity
 _atom_site_fract_x
 _atom_site_fract_y
 _atom_site_fract_z
 _atom_site_occupancy
  Fe  Fe0  1  0.09827200  0.59514100  0.70103100  1.0
  Fe  Fe1  1  0.65861100  0.18036200  0.02000300  1.0
  Fe  Fe2  1  0.34138900  0.81963800  0.97999700  1.0
  Fe  Fe3  1  0.90172800  0.40485900  0.29896900  1.0
