# generated using pymatgen
data_Fe
_symmetry_space_group_name_H-M   'P 1'
_cell_length_a   6.03800077
_cell_length_b   6.03800077
_cell_length_c   20.00461128
_cell_angle_alpha   90.09500773
_cell_angle_beta   98.59028463
_cell_angle_gamma   119.97574781
_symmetry_Int_Tables_number   1
_chemical_formula_structural   Fe
_chemical_formula_sum   Fe16
_cell_volume   622.19156622
_cell_formula_units_Z   16
loop_
 _symmetry_equiv_pos_site_id
 _symmetry_equiv_pos_as_xyz
  1  'x, y, z'
loop_
 _atom_site_type_symbol
 _atom_site_label
 _atom_site_symmetry_multiplicity
 _atom_site_fract_x
 _atom_site_fract_y
 _atom_site_fract_z
 _atom_site_occupancy
  Fe  Fe0  1  0.74173600  0.62218800  0.87524400  1.0
  Fe  Fe1  1  0.99726700  0.74973100  0.74699800  1.0
  Fe  Fe2  1  0.25305600  0.13350800  0.87524400  1.0
  Fe  Fe3  1  0.81499200  0.65221700  0.46720900  1.0
  Fe  Fe4  1  0.24678500  0.87446100  0.62497100  1.0
  Fe  Fe5  1  0.68325800  0.09752300  0.78078100  1.0
  Fe  Fe6  1  0.31593300  0.90247800  0.21841100  1.0
  Fe  Fe7  1  0.75051000  0.37818600  0.62497100  1.0
  Fe  Fe8  1  0.75014700  0.12515400  0.37530000  1.0
  Fe  Fe9  1  0.18478800  0.34800300  0.53279100  1.0
  Fe  Fe10  1  0.25014600  0.62515300  0.37530000  1.0
  Fe  Fe11  1  0.75260300  0.87997700  0.12560300  1.0
  Fe  Fe12  1  0.24562600  0.37300000  0.12560300  1.0
  Fe  Fe13  1  0.68477500  0.59775400  0.28252900  1.0
  Fe  Fe14  1  0.49719600  0.50002100  0.99721700  1.0
  Fe  Fe15  1  0.18309100  0.84735800  0.03044900  1.0
