# generated using pymatgen
data_Fe
_symmetry_space_group_name_H-M   'P 1'
_cell_length_a   2.87746000
_cell_length_b   8.75753000
_cell_length_c   10.16892700
_cell_angle_alpha   90.00000000
_cell_angle_beta   90.00000000
_cell_angle_gamma   90.00000000
_symmetry_Int_Tables_number   1
_chemical_formula_structural   Fe
_chemical_formula_sum   Fe8
_cell_volume   256.25128892
_cell_formula_units_Z   8
loop_
 _symmetry_equiv_pos_site_id
 _symmetry_equiv_pos_as_xyz
  1  'x, y, z'
loop_
 _atom_site_type_symbol
 _atom_site_label
 _atom_site_symmetry_multiplicity
 _atom_site_fract_x
 _atom_site_fract_y
 _atom_site_fract_z
 _atom_site_occupancy
  Fe  Fe0  1  0.75000000  0.94212200  0.38254200  1.0
  Fe  Fe1  1  0.25000000  0.05787800  0.61745800  1.0
  Fe  Fe2  1  0.75000000  0.44212200  0.11745800  1.0
  Fe  Fe3  1  0.25000000  0.55787800  0.88254200  1.0
  Fe  Fe4  1  0.75000000  0.91206500  0.90100200  1.0
  Fe  Fe5  1  0.25000000  0.08793500  0.09899800  1.0
  Fe  Fe6  1  0.75000000  0.41206500  0.59899800  1.0
  Fe  Fe7  1  0.25000000  0.58793500  0.40100200  1.0
