# generated using pymatgen
data_Fe
_symmetry_space_group_name_H-M   'P 1'
_cell_length_a   6.01139400
_cell_length_b   6.02180190
_cell_length_c   6.02180190
_cell_angle_alpha   60.05955776
_cell_angle_beta   60.05715754
_cell_angle_gamma   60.05715754
_symmetry_Int_Tables_number   1
_chemical_formula_structural   Fe
_chemical_formula_sum   Fe4
_cell_volume   154.34167992
_cell_formula_units_Z   4
loop_
 _symmetry_equiv_pos_site_id
 _symmetry_equiv_pos_as_xyz
  1  'x, y, z'
loop_
 _atom_site_type_symbol
 _atom_site_label
 _atom_site_symmetry_multiplicity
 _atom_site_fract_x
 _atom_site_fract_y
 _atom_site_fract_z
 _atom_site_occupancy
  Fe  Fe0  1  0.36714400  0.38285600  0.88285600  1.0
  Fe  Fe1  1  0.63285600  0.61714400  0.11714400  1.0
  Fe  Fe2  1  0.00000000  0.00000000  0.00000000  1.0
  Fe  Fe3  1  0.00000000  0.50000000  0.50000000  1.0
