# generated using pymatgen
data_Fe
_symmetry_space_group_name_H-M   'P 1'
_cell_length_a   5.98258102
_cell_length_b   5.98258102
_cell_length_c   14.63079430
_cell_angle_alpha   89.97910153
_cell_angle_beta   89.97910153
_cell_angle_gamma   60.22144083
_symmetry_Int_Tables_number   1
_chemical_formula_structural   Fe
_chemical_formula_sum   Fe12
_cell_volume   454.50685196
_cell_formula_units_Z   12
loop_
 _symmetry_equiv_pos_site_id
 _symmetry_equiv_pos_as_xyz
  1  'x, y, z'
loop_
 _atom_site_type_symbol
 _atom_site_label
 _atom_site_symmetry_multiplicity
 _atom_site_fract_x
 _atom_site_fract_y
 _atom_site_fract_z
 _atom_site_occupancy
  Fe  Fe0  1  0.50521800  0.50521800  0.38155500  1.0
  Fe  Fe1  1  0.49948600  0.49948600  0.00428000  1.0
  Fe  Fe2  1  0.83013400  0.33326300  0.16832600  1.0
  Fe  Fe3  1  0.17277300  0.17277300  0.70637500  1.0
  Fe  Fe4  1  0.33326300  0.83013400  0.16832600  1.0
  Fe  Fe5  1  0.50002800  0.00009900  0.49977800  1.0
  Fe  Fe6  1  0.00009900  0.50002800  0.49977800  1.0
  Fe  Fe7  1  0.82715100  0.82715100  0.29165000  1.0
  Fe  Fe8  1  0.16245700  0.66907400  0.83126900  1.0
  Fe  Fe9  1  0.66907400  0.16245700  0.83126900  1.0
  Fe  Fe10  1  0.49497400  0.49497400  0.61982500  1.0
  Fe  Fe11  1  0.16196400  0.16196400  0.95851300  1.0
