# generated using pymatgen
data_Fe
_symmetry_space_group_name_H-M   'P 1'
_cell_length_a   2.93243400
_cell_length_b   7.67379196
_cell_length_c   8.07660242
_cell_angle_alpha   71.05172777
_cell_angle_beta   79.54059453
_cell_angle_gamma   78.98487501
_symmetry_Int_Tables_number   1
_chemical_formula_structural   Fe
_chemical_formula_sum   Fe4
_cell_volume   167.32793700
_cell_formula_units_Z   4
loop_
 _symmetry_equiv_pos_site_id
 _symmetry_equiv_pos_as_xyz
  1  'x, y, z'
loop_
 _atom_site_type_symbol
 _atom_site_label
 _atom_site_symmetry_multiplicity
 _atom_site_fract_x
 _atom_site_fract_y
 _atom_site_fract_z
 _atom_site_occupancy
  Fe  Fe0  1  0.39739100  0.40642000  0.79879800  1.0
  Fe  Fe1  1  0.85050600  0.81845300  0.48053500  1.0
  Fe  Fe2  1  0.14949400  0.18154700  0.51946500  1.0
  Fe  Fe3  1  0.60260900  0.59358000  0.20120200  1.0
