# generated using pymatgen
data_Fe
_symmetry_space_group_name_H-M   'P 1'
_cell_length_a   6.04956800
_cell_length_b   6.04956837
_cell_length_c   14.80643700
_cell_angle_alpha   90.00000000
_cell_angle_beta   90.00000000
_cell_angle_gamma   119.99999796
_symmetry_Int_Tables_number   1
_chemical_formula_structural   Fe
_chemical_formula_sum   Fe12
_cell_volume   469.27774163
_cell_formula_units_Z   12
loop_
 _symmetry_equiv_pos_site_id
 _symmetry_equiv_pos_as_xyz
  1  'x, y, z'
loop_
 _atom_site_type_symbol
 _atom_site_label
 _atom_site_symmetry_multiplicity
 _atom_site_fract_x
 _atom_site_fract_y
 _atom_site_fract_z
 _atom_site_occupancy
  Fe  Fe0  1  0.50360600  0.49639400  0.83411600  1.0
  Fe  Fe1  1  0.50360600  0.00721200  0.83411600  1.0
  Fe  Fe2  1  0.16921800  0.83078100  0.50132300  1.0
  Fe  Fe3  1  0.99278800  0.49639400  0.83411600  1.0
  Fe  Fe4  1  0.16921800  0.33843600  0.50132300  1.0
  Fe  Fe5  1  0.00000000  0.00000000  0.33652300  1.0
  Fe  Fe6  1  0.00000000  0.00000000  0.71253000  1.0
  Fe  Fe7  1  0.83506900  0.16493200  0.16770600  1.0
  Fe  Fe8  1  0.66156300  0.83078100  0.50132300  1.0
  Fe  Fe9  1  0.83506900  0.67013800  0.16770600  1.0
  Fe  Fe10  1  0.32986300  0.16493200  0.16770600  1.0
  Fe  Fe11  1  0.33333333  0.66666667  0.04351600  1.0
