# generated using pymatgen
data_Fe
_symmetry_space_group_name_H-M   'P 1'
_cell_length_a   2.94003500
_cell_length_b   8.99943900
_cell_length_c   10.44370500
_cell_angle_alpha   90.00000000
_cell_angle_beta   90.00000000
_cell_angle_gamma   90.00000000
_symmetry_Int_Tables_number   1
_chemical_formula_structural   Fe
_chemical_formula_sum   Fe8
_cell_volume   276.32649864
_cell_formula_units_Z   8
loop_
 _symmetry_equiv_pos_site_id
 _symmetry_equiv_pos_as_xyz
  1  'x, y, z'
loop_
 _atom_site_type_symbol
 _atom_site_label
 _atom_site_symmetry_multiplicity
 _atom_site_fract_x
 _atom_site_fract_y
 _atom_site_fract_z
 _atom_site_occupancy
  Fe  Fe0  1  0.00000000  0.41729500  0.64622400  1.0
  Fe  Fe1  1  0.50000000  0.08288800  0.15028300  1.0
  Fe  Fe2  1  0.00000000  0.91729500  0.35377600  1.0
  Fe  Fe3  1  0.50000000  0.58288800  0.84971700  1.0
  Fe  Fe4  1  0.50000000  0.56779800  0.36737800  1.0
  Fe  Fe5  1  0.00000000  0.43328900  0.13488000  1.0
  Fe  Fe6  1  0.50000000  0.06779800  0.63262200  1.0
  Fe  Fe7  1  0.00000000  0.93328900  0.86512000  1.0
