# generated using pymatgen
data_Fe
_symmetry_space_group_name_H-M   'P 1'
_cell_length_a   6.03986460
_cell_length_b   6.03986460
_cell_length_c   6.04034912
_cell_angle_alpha   60.00264562
_cell_angle_beta   60.00264562
_cell_angle_gamma   59.99999339
_symmetry_Int_Tables_number   1
_chemical_formula_structural   Fe
_chemical_formula_sum   Fe4
_cell_volume   155.81841883
_cell_formula_units_Z   4
loop_
 _symmetry_equiv_pos_site_id
 _symmetry_equiv_pos_as_xyz
  1  'x, y, z'
loop_
 _atom_site_type_symbol
 _atom_site_label
 _atom_site_symmetry_multiplicity
 _atom_site_fract_x
 _atom_site_fract_y
 _atom_site_fract_z
 _atom_site_occupancy
  Fe  Fe0  1  0.24593300  0.24593300  0.26220100  1.0
  Fe  Fe1  1  0.62711000  0.62711000  0.62965300  1.0
  Fe  Fe2  1  0.62711000  0.11612700  0.62965300  1.0
  Fe  Fe3  1  0.11612700  0.62711000  0.62965300  1.0
