# generated using pymatgen
data_Fe
_symmetry_space_group_name_H-M   'P 1'
_cell_length_a   6.01473489
_cell_length_b   6.02463939
_cell_length_c   34.64165193
_cell_angle_alpha   94.82974442
_cell_angle_beta   94.94327478
_cell_angle_gamma   60.07781359
_symmetry_Int_Tables_number   1
_chemical_formula_structural   Fe
_chemical_formula_sum   Fe28
_cell_volume   1082.68766665
_cell_formula_units_Z   28
loop_
 _symmetry_equiv_pos_site_id
 _symmetry_equiv_pos_as_xyz
  1  'x, y, z'
loop_
 _atom_site_type_symbol
 _atom_site_label
 _atom_site_symmetry_multiplicity
 _atom_site_fract_x
 _atom_site_fract_y
 _atom_site_fract_z
 _atom_site_occupancy
  Fe  Fe0  1  0.36150500  0.34769000  0.07110000  1.0
  Fe  Fe1  1  0.85112500  0.85891300  0.07132100  1.0
  Fe  Fe2  1  0.21267000  0.71308600  0.14328900  1.0
  Fe  Fe3  1  0.26337000  0.77739500  0.30371800  1.0
  Fe  Fe4  1  0.07206600  0.06746700  0.21330900  1.0
  Fe  Fe5  1  0.92672100  0.42921300  0.28569000  1.0
  Fe  Fe6  1  0.97699100  0.49135800  0.44525300  1.0
  Fe  Fe7  1  0.56664700  0.57192100  0.21300700  1.0
  Fe  Fe8  1  0.87020900  0.36953500  0.12459300  1.0
  Fe  Fe9  1  0.78515400  0.78688100  0.35728000  1.0
  Fe  Fe10  1  0.64215700  0.14331400  0.42836400  1.0
  Fe  Fe11  1  0.69046700  0.20735300  0.58832500  1.0
  Fe  Fe12  1  0.58544000  0.08368100  0.26830900  1.0
  Fe  Fe13  1  0.50106300  0.49814300  0.50014500  1.0
  Fe  Fe14  1  0.35704400  0.85711400  0.57124600  1.0
  Fe  Fe15  1  0.40503800  0.92070300  0.73110900  1.0
  Fe  Fe16  1  0.30963100  0.79263300  0.41167500  1.0
  Fe  Fe17  1  0.21437400  0.21406100  0.64284600  1.0
  Fe  Fe18  1  0.02462100  0.50498400  0.55422600  1.0
  Fe  Fe19  1  0.07144800  0.57142300  0.71429500  1.0
  Fe  Fe20  1  0.11987100  0.63406800  0.87399800  1.0
  Fe  Fe21  1  0.92852700  0.92875000  0.78607000  1.0
  Fe  Fe22  1  0.73787400  0.22141200  0.69724800  1.0
  Fe  Fe23  1  0.78648800  0.28572800  0.85778500  1.0
  Fe  Fe24  1  0.64615800  0.63706500  0.92949500  1.0
  Fe  Fe25  1  0.45226800  0.93604400  0.84077800  1.0
  Fe  Fe26  1  0.50092600  0.00052700  0.00136300  1.0
  Fe  Fe27  1  0.16424100  0.65359600  0.98359300  1.0
