# generated using pymatgen
data_Ta
_symmetry_space_group_name_H-M   'P 1'
_cell_length_a   5.59382400
_cell_length_b   5.61560200
_cell_length_c   13.05977023
_cell_angle_alpha   77.58469551
_cell_angle_beta   90.00000000
_cell_angle_gamma   90.00000000
_symmetry_Int_Tables_number   1
_chemical_formula_structural   Ta
_chemical_formula_sum   Ta4
_cell_volume   400.64893551
_cell_formula_units_Z   4
loop_
 _symmetry_equiv_pos_site_id
 _symmetry_equiv_pos_as_xyz
  1  'x, y, z'
loop_
 _atom_site_type_symbol
 _atom_site_label
 _atom_site_symmetry_multiplicity
 _atom_site_fract_x
 _atom_site_fract_y
 _atom_site_fract_z
 _atom_site_occupancy
  Ta  Ta0  1  0.49705900  0.90127300  0.16666200  1.0
  Ta  Ta1  1  0.50294100  0.06793500  0.83333800  1.0
  Ta  Ta2  1  0.00294100  0.40127300  0.16666200  1.0
  Ta  Ta3  1  0.99705900  0.56793500  0.83333800  1.0
