# generated using pymatgen
data_NiW
_symmetry_space_group_name_H-M   'P 1'
_cell_length_a   5.66841650
_cell_length_b   5.66832007
_cell_length_c   5.66836739
_cell_angle_alpha   89.99801109
_cell_angle_beta   120.00077137
_cell_angle_gamma   120.00003053
_symmetry_Int_Tables_number   1
_chemical_formula_structural   NiW
_chemical_formula_sum   'Ni1 W1'
_cell_volume   128.78384444
_cell_formula_units_Z   1
loop_
 _symmetry_equiv_pos_site_id
 _symmetry_equiv_pos_as_xyz
  1  'x, y, z'
loop_
 _atom_site_type_symbol
 _atom_site_label
 _atom_site_symmetry_multiplicity
 _atom_site_fract_x
 _atom_site_fract_y
 _atom_site_fract_z
 _atom_site_occupancy
  Ni  Ni0  1  0.00000000  0.50000300  0.50000100  1.0
  W  W1  1  0.99999950  0.99999950  1.00000000  1.0
