# generated using pymatgen
data_Nb2Ni
_symmetry_space_group_name_H-M   'P 1'
_cell_length_a   5.08165000
_cell_length_b   5.79452800
_cell_length_c   14.27187200
_cell_angle_alpha   90.00000000
_cell_angle_beta   90.00000000
_cell_angle_gamma   90.00000000
_symmetry_Int_Tables_number   1
_chemical_formula_structural   Nb2Ni
_chemical_formula_sum   'Nb8 Ni4'
_cell_volume   420.24616349
_cell_formula_units_Z   4
loop_
 _symmetry_equiv_pos_site_id
 _symmetry_equiv_pos_as_xyz
  1  'x, y, z'
loop_
 _atom_site_type_symbol
 _atom_site_label
 _atom_site_symmetry_multiplicity
 _atom_site_fract_x
 _atom_site_fract_y
 _atom_site_fract_z
 _atom_site_occupancy
  Nb  Nb0  1  0.75369300  0.68256300  0.65898400  1.0
  Nb  Nb1  1  0.25369300  0.81743700  0.84101600  1.0
  Nb  Nb2  1  0.74630700  0.68256300  0.34101600  1.0
  Nb  Nb3  1  0.24630700  0.81743700  0.15898400  1.0
  Nb  Nb4  1  0.75369300  0.18256300  0.84101600  1.0
  Nb  Nb5  1  0.25369300  0.31743700  0.65898400  1.0
  Nb  Nb6  1  0.74630700  0.18256300  0.15898400  1.0
  Nb  Nb7  1  0.24630700  0.31743700  0.34101600  1.0
  Ni  Ni8  1  0.75000000  0.65470900  0.00000000  1.0
  Ni  Ni9  1  0.25000000  0.84529100  0.50000000  1.0
  Ni  Ni10  1  0.25000000  0.34529100  0.00000000  1.0
  Ni  Ni11  1  0.75000000  0.15470900  0.50000000  1.0
