# generated using pymatgen
data_Nb2Ni
_symmetry_space_group_name_H-M   'P 1'
_cell_length_a   4.80306100
_cell_length_b   4.80303800
_cell_length_c   9.19399100
_cell_angle_alpha   89.99970729
_cell_angle_beta   89.99987803
_cell_angle_gamma   90.00011929
_symmetry_Int_Tables_number   1
_chemical_formula_structural   Nb2Ni
_chemical_formula_sum   'Nb4 Ni2'
_cell_volume   212.09879408
_cell_formula_units_Z   2
loop_
 _symmetry_equiv_pos_site_id
 _symmetry_equiv_pos_as_xyz
  1  'x, y, z'
loop_
 _atom_site_type_symbol
 _atom_site_label
 _atom_site_symmetry_multiplicity
 _atom_site_fract_x
 _atom_site_fract_y
 _atom_site_fract_z
 _atom_site_occupancy
  Nb  Nb0  1  0.99999500  0.99999750  0.00206150  1.0
  Nb  Nb1  1  0.00000950  0.00000650  0.66460250  1.0
  Nb  Nb2  1  0.49999100  0.50000600  0.16460300  1.0
  Nb  Nb3  1  0.50000500  0.49999700  0.50206100  1.0
  Ni  Ni4  1  0.00000000  0.99999633  0.33333333  1.0
  Ni  Ni5  1  0.49999950  0.49999267  0.83333700  1.0
