# generated using pymatgen
data_Ta
_symmetry_space_group_name_H-M   'P 1'
_cell_length_a   3.98985400
_cell_length_b   5.75570000
_cell_length_c   13.97290317
_cell_angle_alpha   90.00000000
_cell_angle_beta   98.20823077
_cell_angle_gamma   90.00000000
_symmetry_Int_Tables_number   1
_chemical_formula_structural   Ta
_chemical_formula_sum   Ta4
_cell_volume   317.59220040
_cell_formula_units_Z   4
loop_
 _symmetry_equiv_pos_site_id
 _symmetry_equiv_pos_as_xyz
  1  'x, y, z'
loop_
 _atom_site_type_symbol
 _atom_site_label
 _atom_site_symmetry_multiplicity
 _atom_site_fract_x
 _atom_site_fract_y
 _atom_site_fract_z
 _atom_site_occupancy
  Ta  Ta0  1  0.84091300  0.25000000  0.68182600  1.0
  Ta  Ta1  1  0.15908700  0.75000000  0.31817400  1.0
  Ta  Ta2  1  0.94532100  0.75000000  0.89064200  1.0
  Ta  Ta3  1  0.05467900  0.25000000  0.10935800  1.0
