# generated using pymatgen
data_CePd
_symmetry_space_group_name_H-M   'P 1'
_cell_length_a   4.48406700
_cell_length_b   7.71625100
_cell_length_c   21.66169400
_cell_angle_alpha   90.00000000
_cell_angle_beta   90.00000000
_cell_angle_gamma   90.00000000
_symmetry_Int_Tables_number   1
_chemical_formula_structural   CePd
_chemical_formula_sum   'Ce12 Pd12'
_cell_volume   749.49865172
_cell_formula_units_Z   12
loop_
 _symmetry_equiv_pos_site_id
 _symmetry_equiv_pos_as_xyz
  1  'x, y, z'
loop_
 _atom_site_type_symbol
 _atom_site_label
 _atom_site_symmetry_multiplicity
 _atom_site_fract_x
 _atom_site_fract_y
 _atom_site_fract_z
 _atom_site_occupancy
  Ce  Ce0  1  0.25000000  0.78562300  0.83302000  1.0
  Ce  Ce1  1  0.75000000  0.21437700  0.16698000  1.0
  Ce  Ce2  1  0.75000000  0.28562300  0.66698000  1.0
  Ce  Ce3  1  0.25000000  0.71437700  0.33302000  1.0
  Ce  Ce4  1  0.25000000  0.71056300  0.66618400  1.0
  Ce  Ce5  1  0.75000000  0.28943700  0.33381600  1.0
  Ce  Ce6  1  0.75000000  0.21056300  0.83381600  1.0
  Ce  Ce7  1  0.25000000  0.78943700  0.16618400  1.0
  Ce  Ce8  1  0.25000000  0.77985600  0.50199000  1.0
  Ce  Ce9  1  0.75000000  0.22014400  0.49801000  1.0
  Ce  Ce10  1  0.75000000  0.27985600  0.99801000  1.0
  Ce  Ce11  1  0.25000000  0.72014400  0.00199000  1.0
  Pd  Pd12  1  0.25000000  0.42166200  0.09265300  1.0
  Pd  Pd13  1  0.75000000  0.57833800  0.90734700  1.0
  Pd  Pd14  1  0.75000000  0.92166200  0.40734700  1.0
  Pd  Pd15  1  0.25000000  0.07833800  0.59265300  1.0
  Pd  Pd16  1  0.25000000  0.41963800  0.23882400  1.0
  Pd  Pd17  1  0.75000000  0.58036200  0.76117600  1.0
  Pd  Pd18  1  0.75000000  0.91963800  0.26117600  1.0
  Pd  Pd19  1  0.25000000  0.08036200  0.73882400  1.0
  Pd  Pd20  1  0.25000000  0.41611700  0.43271900  1.0
  Pd  Pd21  1  0.75000000  0.58388300  0.56728100  1.0
  Pd  Pd22  1  0.75000000  0.91611700  0.06728100  1.0
  Pd  Pd23  1  0.25000000  0.08388300  0.93271900  1.0
