# generated using pymatgen
data_V
_symmetry_space_group_name_H-M   'P 1'
_cell_length_a   9.69129600
_cell_length_b   11.10469000
_cell_length_c   11.10469031
_cell_angle_alpha   60.00000093
_cell_angle_beta   90.00000000
_cell_angle_gamma   90.00000000
_symmetry_Int_Tables_number   1
_chemical_formula_structural   V
_chemical_formula_sum   V18
_cell_volume   1034.96433613
_cell_formula_units_Z   18
loop_
 _symmetry_equiv_pos_site_id
 _symmetry_equiv_pos_as_xyz
  1  'x, y, z'
loop_
 _atom_site_type_symbol
 _atom_site_label
 _atom_site_symmetry_multiplicity
 _atom_site_fract_x
 _atom_site_fract_y
 _atom_site_fract_z
 _atom_site_occupancy
  V  V0  1  0.79911400  0.11982300  0.19718100  1.0
  V  V1  1  0.79911400  0.19718200  0.68299500  1.0
  V  V2  1  0.79911400  0.68299600  0.11982200  1.0
  V  V3  1  0.29911400  0.31700400  0.80281900  1.0
  V  V4  1  0.29911400  0.88017700  0.31700500  1.0
  V  V5  1  0.29911400  0.80281800  0.88017800  1.0
  V  V6  1  0.14824500  0.15697000  0.15737900  1.0
  V  V7  1  0.14824500  0.15737900  0.68565100  1.0
  V  V8  1  0.14824500  0.68565100  0.15697000  1.0
  V  V9  1  0.64824500  0.31434900  0.84262100  1.0
  V  V10  1  0.64824500  0.84303000  0.31434900  1.0
  V  V11  1  0.64824500  0.84262100  0.84303000  1.0
  V  V12  1  0.49780700  0.19704100  0.11982600  1.0
  V  V13  1  0.49780700  0.11982600  0.68313300  1.0
  V  V14  1  0.49780700  0.68313300  0.19704100  1.0
  V  V15  1  0.99780700  0.31686700  0.88017400  1.0
  V  V16  1  0.99780700  0.80295900  0.31686700  1.0
  V  V17  1  0.99780700  0.88017400  0.80295900  1.0
