# generated using pymatgen
data_SnO2
_symmetry_space_group_name_H-M   'P 1'
_cell_length_a   11.23513322
_cell_length_b   10.95192808
_cell_length_c   10.73337495
_cell_angle_alpha   93.32083044
_cell_angle_beta   88.49796278
_cell_angle_gamma   94.46272682
_symmetry_Int_Tables_number   1
_chemical_formula_structural   SnO2
_chemical_formula_sum   'Sn30 O60'
_cell_volume   1314.17510128
_cell_formula_units_Z   30
loop_
 _symmetry_equiv_pos_site_id
 _symmetry_equiv_pos_as_xyz
  1  'x, y, z'
loop_
 _atom_site_type_symbol
 _atom_site_label
 _atom_site_symmetry_multiplicity
 _atom_site_fract_x
 _atom_site_fract_y
 _atom_site_fract_z
 _atom_site_occupancy
  Sn  Sn0  1  0.76195801  0.16655535  0.19048921  1
  Sn  Sn1  1  0.56779204  0.58343851  0.95661213  1
  Sn  Sn2  1  0.90537405  0.83196108  0.67321428  1
  Sn  Sn3  1  0.55574036  0.83728620  0.71400284  1
  Sn  Sn4  1  0.01306532  0.65539012  0.94455749  1
  Sn  Sn5  1  0.79671647  0.52333631  0.76327385  1
  Sn  Sn6  1  0.47704500  0.33437928  0.79040208  1
  Sn  Sn7  1  0.44874728  0.17729921  0.09276163  1
  Sn  Sn8  1  0.07481063  0.60021632  0.49981840  1
  Sn  Sn9  1  0.40739223  0.90784634  0.23317428  1
  Sn  Sn10  1  0.90499481  0.40795258  0.08124354  1
  Sn  Sn11  1  0.21049272  0.69049817  0.24936089  1
  Sn  Sn12  1  0.30437662  0.75223469  0.92940651  1
  Sn  Sn13  1  0.61641656  0.86297905  0.04574134  1
  Sn  Sn14  1  0.55144196  0.57349704  0.58330391  1
  Sn  Sn15  1  0.25350993  0.42581300  0.97665361  1
  Sn  Sn16  1  0.04548357  0.94278917  0.99832232  1
  Sn  Sn17  1  0.12586354  0.30157971  0.54395153  1
  Sn  Sn18  1  0.90726046  0.67221608  0.24259167  1
  Sn  Sn19  1  0.65452067  0.79423485  0.41967473  1
  Sn  Sn20  1  0.01834703  0.15797268  0.29100301  1
  Sn  Sn21  1  0.29103097  0.41379588  0.27824471  1
  Sn  Sn22  1  0.98692205  0.13871271  0.82062772  1
  Sn  Sn23  1  0.61777515  0.47062234  0.25901094  1
  Sn  Sn24  1  0.26522773  0.12703701  0.73108845  1
  Sn  Sn25  1  0.24792354  0.01569716  0.45418677  1
  Sn  Sn26  1  0.81388756  0.09533263  0.52966914  1
  Sn  Sn27  1  0.52213750  0.23468645  0.45723089  1
  Sn  Sn28  1  0.69657333  0.11860115  0.89655608  1
  Sn  Sn29  1  0.82402113  0.39184410  0.49522665  1
  O  O30  1  0.02583267  0.32086198  0.87510077  1
  O  O31  1  0.13126626  0.80790773  0.89954571  1
  O  O32  1  0.47010733  0.41051015  0.61614421  1
  O  O33  1  0.54177336  0.46852419  0.09873543  1
  O  O34  1  0.91285296  0.29254938  0.22733167  1
  O  O35  1  0.60105171  0.60803051  0.38994629  1
  O  O36  1  0.22773858  0.56689089  0.38580991  1
  O  O37  1  0.06979281  0.34647083  0.00275842  1
  O  O38  1  0.50441936  0.74683105  0.54534782  1
  O  O39  1  0.45300186  0.39539688  0.34328950  1
  O  O40  1  0.29126171  0.29373398  0.83749390  1
  O  O41  1  0.79823207  0.25125036  0.01830901  1
  O  O42  1  0.55132244  0.21579582  0.92942882  1
  O  O43  1  0.04898215  0.74766362  0.60737946  1
  O  O44  1  0.25253788  0.96596870  0.62727361  1
  O  O45  1  0.88704488  0.50940420  0.92897511  1
  O  O46  1  0.38433811  0.82820589  0.78573536  1
  O  O47  1  0.15117379  0.30388748  0.34573455  1
  O  O48  1  0.05869599  0.72481632  0.34057782  1
  O  O49  1  0.14505586  0.47478501  0.60255296  1
  O  O50  1  0.29792170  0.30921106  0.11289658  1
  O  O51  1  0.30042117  0.82803073  0.36416052  1
  O  O52  1  0.93266299  0.98554447  0.57861929  1
  O  O53  1  0.90613574  0.42204206  0.66192436  1
  O  O54  1  0.78950942  0.52436528  0.18228686  1
  O  O55  1  0.64616357  0.44250665  0.84479308  1
  O  O56  1  0.83692284  0.07959019  0.32986686  1
  O  O57  1  0.26160387  0.81634171  0.11704109  1
  O  O58  1  0.92887811  0.52583821  0.40779424  1
  O  O59  1  0.72050036  0.52531243  0.58956997  1
  O  O60  1  0.41434557  0.48828284  0.89110668  1
  O  O61  1  0.64798572  0.98280605  0.48928688  1
  O  O62  1  0.02192929  0.56920100  0.12666179  1
  O  O63  1  0.59026510  0.19760201  0.21439385  1
  O  O64  1  0.44625199  0.16462624  0.70863273  1
  O  O65  1  0.69739230  0.35640585  0.36175154  1
  O  O66  1  0.70070495  0.70991615  0.01601068  1
  O  O67  1  0.63075081  0.93543595  0.86298300  1
  O  O68  1  0.47083708  0.97641230  0.07181645  1
  O  O69  1  0.58135765  0.65749241  0.76502817  1
  O  O70  1  0.14650957  0.07578287  0.89091834  1
  O  O71  1  0.73160922  0.02259462  0.05901327  1
  O  O72  1  0.81589049  0.14570060  0.75657515  1
  O  O73  1  0.00068954  0.08087087  0.11272938  1
  O  O74  1  0.95631129  0.24193469  0.47693346  1
  O  O75  1  0.73363787  0.79785037  0.61011889  1
  O  O76  1  0.18850357  0.58790608  0.91410428  1
  O  O77  1  0.88931043  0.69313435  0.79947676  1
  O  O78  1  0.10649693  0.02420926  0.35150316  1
  O  O79  1  0.71621351  0.23817179  0.55328363  1
  O  O80  1  0.93194493  0.95278885  0.84626428  1
  O  O81  1  0.09416449  0.17721656  0.67678624  1
  O  O82  1  0.27926032  0.54576188  0.14761652  1
  O  O83  1  0.46358202  0.72619717  0.01437819  1
  O  O84  1  0.27317366  0.20179326  0.53528868  1
  O  O85  1  0.81215234  0.79183651  0.33370695  1
  O  O86  1  0.38260607  0.06533352  0.33162001  1
  O  O87  1  0.95980279  0.78730723  0.07893988  1
  O  O88  1  0.57861560  0.99701893  0.60894601  1
  O  O89  1  0.57289711  0.84609987  0.25169840  1
