# generated using pymatgen
data_TiMn
_symmetry_space_group_name_H-M   'P 1'
_cell_length_a   5.36987638
_cell_length_b   5.43061900
_cell_length_c   7.62123123
_cell_angle_alpha   89.99992016
_cell_angle_beta   89.93461956
_cell_angle_gamma   89.99986735
_symmetry_Int_Tables_number   1
_chemical_formula_structural   TiMn
_chemical_formula_sum   'Ti2 Mn2'
_cell_volume   222.24831558
_cell_formula_units_Z   2
loop_
 _symmetry_equiv_pos_site_id
 _symmetry_equiv_pos_as_xyz
  1  'x, y, z'
loop_
 _atom_site_type_symbol
 _atom_site_label
 _atom_site_symmetry_multiplicity
 _atom_site_fract_x
 _atom_site_fract_y
 _atom_site_fract_z
 _atom_site_occupancy
  Mn  Mn0  1  0.00007400  0.49957150  0.00010050  1.0
  Mn  Mn1  1  0.50016200  0.00035150  0.50011450  1.0
  Ti  Ti2  1  0.99998750  0.50017100  0.50003050  1.0
  Ti  Ti3  1  0.49989650  0.99980300  0.00003650  1.0
