# generated using pymatgen
data_CrFeO3
_symmetry_space_group_name_H-M   'P 1'
_cell_length_a   9.95723920
_cell_length_b   9.96595257
_cell_length_c   10.00374592
_cell_angle_alpha   89.27478493
_cell_angle_beta   87.93391546
_cell_angle_gamma   92.19663900
_symmetry_Int_Tables_number   1
_chemical_formula_structural   CrFeO3
_chemical_formula_sum   'Cr16 Fe16 O48'
_cell_volume   991.23314105
_cell_formula_units_Z   16
loop_
 _symmetry_equiv_pos_site_id
 _symmetry_equiv_pos_as_xyz
  1  'x, y, z'
loop_
 _atom_site_type_symbol
 _atom_site_label
 _atom_site_symmetry_multiplicity
 _atom_site_fract_x
 _atom_site_fract_y
 _atom_site_fract_z
 _atom_site_occupancy
  Cr  Cr0  1  0.64827358  0.25604785  0.73380567  1
  Cr  Cr1  1  0.54526515  0.12174221  0.95345596  1
  Cr  Cr2  1  0.71593807  0.14955356  0.42974186  1
  Cr  Cr3  1  0.23968765  0.17355542  0.12504226  1
  Cr  Cr4  1  0.88903419  0.37634593  0.46391994  1
  Cr  Cr5  1  0.37234305  0.69714453  0.42348482  1
  Cr  Cr6  1  0.20330689  0.96281301  0.80713126  1
  Cr  Cr7  1  0.35853661  0.24646854  0.66899665  1
  Cr  Cr8  1  0.21779697  0.01137153  0.39876272  1
  Cr  Cr9  1  0.52713063  0.37066173  0.38738125  1
  Cr  Cr10  1  0.48945906  0.81207298  0.83530572  1
  Cr  Cr11  1  0.04345616  0.67079972  0.68994364  1
  Cr  Cr12  1  0.83943857  0.46088225  0.74858746  1
  Cr  Cr13  1  0.92836859  0.16983832  0.92905026  1
  Cr  Cr14  1  0.91425792  0.97824636  0.37685878  1
  Cr  Cr15  1  0.72781734  0.75963987  0.60392527  1
  Fe  Fe16  1  0.44056094  0.41923195  0.98409149  1
  Fe  Fe17  1  0.51078603  0.67649454  0.12573212  1
  Fe  Fe18  1  0.93151489  0.09505860  0.61465117  1
  Fe  Fe19  1  0.71083886  0.82696842  0.24682253  1
  Fe  Fe20  1  0.30117780  0.47811181  0.22053554  1
  Fe  Fe21  1  0.74715864  0.90985492  0.93323585  1
  Fe  Fe22  1  0.87378575  0.62919830  0.02317647  1
  Fe  Fe23  1  0.22223266  0.67328121  0.99583118  1
  Fe  Fe24  1  0.99113427  0.66311138  0.40855425  1
  Fe  Fe25  1  0.69776894  0.34524902  0.14603089  1
  Fe  Fe26  1  0.04390632  0.39463370  0.14338200  1
  Fe  Fe27  1  0.51811123  0.04220482  0.24891011  1
  Fe  Fe28  1  0.17516364  0.46080987  0.48750581  1
  Fe  Fe29  1  0.04817579  0.90112198  0.09370852  1
  Fe  Fe30  1  0.52134602  0.52399601  0.69081991  1
  Fe  Fe31  1  0.16506377  0.41008191  0.82101994  1
  O  O32  1  0.30430188  0.87917040  0.43684520  1
  O  O33  1  0.27905466  0.13476693  0.48975473  1
  O  O34  1  0.37172863  0.39859034  0.79756877  1
  O  O35  1  0.77888546  0.98811889  0.54197070  1
  O  O36  1  0.72499072  0.34281710  0.35913620  1
  O  O37  1  0.64385465  0.40289291  0.84076810  1
  O  O38  1  0.73724015  0.01446049  0.28827270  1
  O  O39  1  0.03319018  0.71085400  0.09125814  1
  O  O40  1  0.97501766  0.35194676  0.84977109  1
  O  O41  1  0.52831920  0.17607741  0.40159360  1
  O  O42  1  0.85939824  0.45685404  0.10259761  1
  O  O43  1  0.71803504  0.73377374  0.07688389  1
  O  O44  1  0.36432793  0.48815412  0.40716459  1
  O  O45  1  0.45246195  0.65345717  0.92635990  1
  O  O46  1  0.66257703  0.83114828  0.77046931  1
  O  O47  1  0.03115737  0.46616014  0.34597327  1
  O  O48  1  0.71032030  0.56730653  0.64141663  1
  O  O49  1  0.36106902  0.89132663  0.75123000  1
  O  O50  1  0.07956312  0.20851171  0.05098855  1
  O  O51  1  0.17807857  0.65165315  0.50974356  1
  O  O52  1  0.10123747  0.84624418  0.73889077  1
  O  O53  1  0.50598378  0.14485629  0.75259827  1
  O  O54  1  0.53535515  0.78330762  0.31091303  1
  O  O55  1  0.97384089  0.49313560  0.59943883  1
  O  O56  1  0.73407490  0.14490444  0.86542160  1
  O  O57  1  0.99555908  0.07271535  0.78129452  1
  O  O58  1  0.80224177  0.27565873  0.62621626  1
  O  O59  1  0.21027800  0.91082079  0.98194763  1
  O  O60  1  0.31618023  0.04471435  0.23683165  1
  O  O61  1  0.61503501  0.16798717  0.11993628  1
  O  O62  1  0.51764033  0.45225981  0.17648626  1
  O  O63  1  0.17012460  0.59671814  0.81457812  1
  O  O64  1  0.19368604  0.34340336  0.63063130  1
  O  O65  1  0.52313628  0.35474414  0.58861965  1
  O  O66  1  0.92043712  0.18373272  0.42734073  1
  O  O67  1  0.07852856  0.99126819  0.25966650  1
  O  O68  1  0.38149156  0.21077568  0.01503761  1
  O  O69  1  0.91329151  0.75238350  0.57739251  1
  O  O70  1  0.48366055  0.68134500  0.59217994  1
  O  O71  1  0.87035076  0.78927703  0.32703368  1
  O  O72  1  0.90133899  0.98669523  0.02354567  1
  O  O73  1  0.06165559  0.98499280  0.50141363  1
  O  O74  1  0.24010521  0.29993725  0.25482847  1
  O  O75  1  0.89610720  0.62743952  0.83303192  1
  O  O76  1  0.22553311  0.46477454  0.04452081  1
  O  O77  1  0.24708697  0.12881842  0.78511620  1
  O  O78  1  0.53668798  0.92804387  0.98004593  1
  O  O79  1  0.31642259  0.66568328  0.21343442  1
