# generated using pymatgen
data_CrFe
_symmetry_space_group_name_H-M   'P 1'
_cell_length_a   10.03446493
_cell_length_b   10.07227968
_cell_length_c   10.27270018
_cell_angle_alpha   92.57233558
_cell_angle_beta   90.90018226
_cell_angle_gamma   82.06700304
_symmetry_Int_Tables_number   1
_chemical_formula_structural   CrFe
_chemical_formula_sum   'Cr16 Fe16'
_cell_volume   1027.24145118
_cell_formula_units_Z   16
loop_
 _symmetry_equiv_pos_site_id
 _symmetry_equiv_pos_as_xyz
  1  'x, y, z'
loop_
 _atom_site_type_symbol
 _atom_site_label
 _atom_site_symmetry_multiplicity
 _atom_site_fract_x
 _atom_site_fract_y
 _atom_site_fract_z
 _atom_site_occupancy
  Cr  Cr0  1  0.17928228  0.72936276  0.63551351  1.0
  Cr  Cr1  1  0.96386728  0.48287116  0.82616482  1.0
  Cr  Cr2  1  0.60973822  0.61305134  0.84773317  1.0
  Cr  Cr3  1  0.92369579  0.18243508  0.95770243  1.0
  Cr  Cr4  1  0.37249652  0.91078156  0.61699934  1.0
  Cr  Cr5  1  0.45972044  0.30921139  0.35626858  1.0
  Cr  Cr6  1  0.22182208  0.12937514  0.15566501  1.0
  Cr  Cr7  1  0.27743193  0.38187392  0.70043408  1.0
  Cr  Cr8  1  0.67198412  0.13312327  0.19054700  1.0
  Cr  Cr9  1  0.43668205  0.56453211  0.53492887  1.0
  Cr  Cr10  1  0.15332456  0.38843249  0.03142400  1.0
  Cr  Cr11  1  0.28003832  0.15572501  0.50048209  1.0
  Cr  Cr12  1  0.36325062  0.73053045  0.31642127  1.0
  Cr  Cr13  1  0.97929980  0.89664053  0.86913685  1.0
  Cr  Cr14  1  0.70704620  0.92501303  0.97280726  1.0
  Cr  Cr15  1  0.39105953  0.61570018  0.02398104  1.0
  Fe  Fe16  1  0.02936155  0.17369556  0.67783718  1.0
  Fe  Fe17  1  0.91530181  0.76847683  0.40705287  1.0
  Fe  Fe18  1  0.59965775  0.03747976  0.72380469  1.0
  Fe  Fe19  1  0.62764617  0.74804148  0.15521162  1.0
  Fe  Fe20  1  0.69377815  0.55896927  0.40562059  1.0
  Fe  Fe21  1  0.05382754  0.64682509  0.12085238  1.0
  Fe  Fe22  1  0.02339341  0.03163018  0.41410413  1.0
  Fe  Fe23  1  0.95862620  0.32307787  0.29357949  1.0
  Fe  Fe24  1  0.57969077  0.92648971  0.41325964  1.0
  Fe  Fe25  1  0.82453704  0.74590925  0.67925589  1.0
  Fe  Fe26  1  0.77300025  0.12396654  0.46461450  1.0
  Fe  Fe27  1  0.67275825  0.40320887  0.12306816  1.0
  Fe  Fe28  1  0.56300418  0.33851939  0.64863781  1.0
  Fe  Fe29  1  0.96781905  0.93032368  0.16863128  1.0
  Fe  Fe30  1  0.16840441  0.56234526  0.36299981  1.0
  Fe  Fe31  1  0.37794287  0.10236906  0.91626249  1.0
