# generated using pymatgen
data_CrFe
_symmetry_space_group_name_H-M   'P 1'
_cell_length_a   9.95723920
_cell_length_b   9.96595257
_cell_length_c   10.00374592
_cell_angle_alpha   90.72521507
_cell_angle_beta   92.06608454
_cell_angle_gamma   92.19663900
_symmetry_Int_Tables_number   1
_chemical_formula_structural   CrFe
_chemical_formula_sum   'Cr16 Fe16'
_cell_volume   991.23314181
_cell_formula_units_Z   16
loop_
 _symmetry_equiv_pos_site_id
 _symmetry_equiv_pos_as_xyz
  1  'x, y, z'
loop_
 _atom_site_type_symbol
 _atom_site_label
 _atom_site_symmetry_multiplicity
 _atom_site_fract_x
 _atom_site_fract_y
 _atom_site_fract_z
 _atom_site_occupancy
  Cr  Cr0  1  0.35172642  0.74395215  0.73380567  1.0
  Cr  Cr1  1  0.45473485  0.87825779  0.95345596  1.0
  Cr  Cr2  1  0.28406193  0.85044644  0.42974186  1.0
  Cr  Cr3  1  0.76031235  0.82644458  0.12504226  1.0
  Cr  Cr4  1  0.11096581  0.62365407  0.46391994  1.0
  Cr  Cr5  1  0.62765695  0.30285547  0.42348482  1.0
  Cr  Cr6  1  0.79669311  0.03718699  0.80713126  1.0
  Cr  Cr7  1  0.64146339  0.75353146  0.66899665  1.0
  Cr  Cr8  1  0.78220303  0.98862847  0.39876272  1.0
  Cr  Cr9  1  0.47286937  0.62933827  0.38738125  1.0
  Cr  Cr10  1  0.51054094  0.18792702  0.83530572  1.0
  Cr  Cr11  1  0.95654384  0.32920028  0.68994364  1.0
  Cr  Cr12  1  0.16056143  0.53911775  0.74858746  1.0
  Cr  Cr13  1  0.07163141  0.83016168  0.92905026  1.0
  Cr  Cr14  1  0.08574208  0.02175364  0.37685878  1.0
  Cr  Cr15  1  0.27218266  0.24036013  0.60392527  1.0
  Fe  Fe16  1  0.55943906  0.58076805  0.98409149  1.0
  Fe  Fe17  1  0.48921397  0.32350546  0.12573212  1.0
  Fe  Fe18  1  0.06848511  0.90494140  0.61465117  1.0
  Fe  Fe19  1  0.28916114  0.17303158  0.24682253  1.0
  Fe  Fe20  1  0.69882220  0.52188819  0.22053554  1.0
  Fe  Fe21  1  0.25284136  0.09014508  0.93323585  1.0
  Fe  Fe22  1  0.12621425  0.37080170  0.02317647  1.0
  Fe  Fe23  1  0.77776734  0.32671879  0.99583118  1.0
  Fe  Fe24  1  0.00886573  0.33688862  0.40855425  1.0
  Fe  Fe25  1  0.30223106  0.65475098  0.14603089  1.0
  Fe  Fe26  1  0.95609368  0.60536630  0.14338200  1.0
  Fe  Fe27  1  0.48188877  0.95779518  0.24891011  1.0
  Fe  Fe28  1  0.82483636  0.53919013  0.48750581  1.0
  Fe  Fe29  1  0.95182421  0.09887802  0.09370852  1.0
  Fe  Fe30  1  0.47865398  0.47600399  0.69081991  1.0
  Fe  Fe31  1  0.83493623  0.58991809  0.82101994  1.0
