# generated using pymatgen
data_CrFe
_symmetry_space_group_name_H-M   'P 1'
_cell_length_a   9.95655386
_cell_length_b   10.12698961
_cell_length_c   10.35272696
_cell_angle_alpha   88.16394208
_cell_angle_beta   86.49238390
_cell_angle_gamma   85.03185435
_symmetry_Int_Tables_number   1
_chemical_formula_structural   CrFe
_chemical_formula_sum   'Cr16 Fe16'
_cell_volume   1037.61924155
_cell_formula_units_Z   16
loop_
 _symmetry_equiv_pos_site_id
 _symmetry_equiv_pos_as_xyz
  1  'x, y, z'
loop_
 _atom_site_type_symbol
 _atom_site_label
 _atom_site_symmetry_multiplicity
 _atom_site_fract_x
 _atom_site_fract_y
 _atom_site_fract_z
 _atom_site_occupancy
  Cr  Cr0  1  0.61521589  0.99715969  0.01276016  1.0
  Cr  Cr1  1  0.02045857  0.91706458  0.53763018  1.0
  Cr  Cr2  1  0.61511350  0.94626795  0.32925899  1.0
  Cr  Cr3  1  0.47847483  0.55424256  0.43057590  1.0
  Cr  Cr4  1  0.18748227  0.78735328  0.27725251  1.0
  Cr  Cr5  1  0.46340237  0.36442844  0.74777193  1.0
  Cr  Cr6  1  0.21903858  0.29925280  0.12616439  1.0
  Cr  Cr7  1  0.52393996  0.68663305  0.71584113  1.0
  Cr  Cr8  1  0.14199231  0.81769298  0.79744210  1.0
  Cr  Cr9  1  0.57511494  0.19947359  0.22118668  1.0
  Cr  Cr10  1  0.24933429  0.53973485  0.86063964  1.0
  Cr  Cr11  1  0.68819096  0.56182152  0.20440013  1.0
  Cr  Cr12  1  0.40262945  0.27751592  0.51287277  1.0
  Cr  Cr13  1  0.01961431  0.30433201  0.88405193  1.0
  Cr  Cr14  1  0.71181651  0.29160966  0.48935436  1.0
  Cr  Cr15  1  0.36464059  0.85609855  0.54403259  1.0
  Fe  Fe16  1  0.95313953  0.47280493  0.35018293  1.0
  Fe  Fe17  1  0.95548611  0.64517102  0.76867426  1.0
  Fe  Fe18  1  0.52093484  0.00402891  0.74739496  1.0
  Fe  Fe19  1  0.93038749  0.99866174  0.28933955  1.0
  Fe  Fe20  1  0.25259547  0.50818851  0.26417025  1.0
  Fe  Fe21  1  0.95450061  0.93684117  0.01177553  1.0
  Fe  Fe22  1  0.76779902  0.71455002  0.47760483  1.0
  Fe  Fe23  1  0.06545321  0.23209456  0.44308911  1.0
  Fe  Fe24  1  0.29881337  0.06636707  0.30114517  1.0
  Fe  Fe25  1  0.74069873  0.43634599  0.75124831  1.0
  Fe  Fe26  1  0.29053586  0.89285977  0.00065040  1.0
  Fe  Fe27  1  0.22978677  0.13860463  0.69633753  1.0
  Fe  Fe28  1  0.81073369  0.31786794  0.09429266  1.0
  Fe  Fe29  1  0.75428385  0.18689102  0.85437991  1.0
  Fe  Fe30  1  0.01925809  0.60060492  0.05695523  1.0
  Fe  Fe31  1  0.16006227  0.56835849  0.52492673  1.0
