# generated using pymatgen
data_CrFeO3
_symmetry_space_group_name_H-M   'P 1'
_cell_length_a   10.25263582
_cell_length_b   10.89455803
_cell_length_c   9.42668916
_cell_angle_alpha   92.83451593
_cell_angle_beta   94.62760680
_cell_angle_gamma   95.69280813
_symmetry_Int_Tables_number   1
_chemical_formula_structural   CrFeO3
_chemical_formula_sum   'Cr16 Fe16 O48'
_cell_volume   1042.57942542
_cell_formula_units_Z   16
loop_
 _symmetry_equiv_pos_site_id
 _symmetry_equiv_pos_as_xyz
  1  'x, y, z'
loop_
 _atom_site_type_symbol
 _atom_site_label
 _atom_site_symmetry_multiplicity
 _atom_site_fract_x
 _atom_site_fract_y
 _atom_site_fract_z
 _atom_site_occupancy
  Cr  Cr0  1  0.91909403  0.33388637  0.89223116  1
  Cr  Cr1  1  0.47058766  0.16995266  0.03458644  1
  Cr  Cr2  1  0.78214794  0.11045220  0.47051915  1
  Cr  Cr3  1  0.20952996  0.97439356  0.09730595  1
  Cr  Cr4  1  0.87449531  0.36507037  0.59040205  1
  Cr  Cr5  1  0.43526922  0.70833809  0.47655737  1
  Cr  Cr6  1  0.14177624  0.83333527  0.73523579  1
  Cr  Cr7  1  0.48752003  0.18421407  0.65101183  1
  Cr  Cr8  1  0.19411704  0.78521956  0.31796381  1
  Cr  Cr9  1  0.64704379  0.48765266  0.67200496  1
  Cr  Cr10  1  0.36275365  0.97029223  0.84707882  1
  Cr  Cr11  1  0.12229298  0.52551846  0.64164167  1
  Cr  Cr12  1  0.77507613  0.79246959  0.64184132  1
  Cr  Cr13  1  0.97128610  0.15368690  0.04618701  1
  Cr  Cr14  1  0.95580000  0.97848753  0.27632377  1
  Cr  Cr15  1  0.56865703  0.94545882  0.55367734  1
  Fe  Fe16  1  0.26377282  0.33848139  0.15167505  1
  Fe  Fe17  1  0.76501835  0.57842960  0.05062629  1
  Fe  Fe18  1  0.02208166  0.28117219  0.39154930  1
  Fe  Fe19  1  0.68718925  0.79593875  0.26934210  1
  Fe  Fe20  1  0.57019905  0.50656278  0.30356583  1
  Fe  Fe21  1  0.66291084  0.92719022  0.03724037  1
  Fe  Fe22  1  0.10187540  0.55115024  0.94511487  1
  Fe  Fe23  1  0.38318927  0.69076248  0.11555727  1
  Fe  Fe24  1  0.87232069  0.60622141  0.41508506  1
  Fe  Fe25  1  0.72514004  0.30096929  0.19942221  1
  Fe  Fe26  1  0.14221246  0.53109213  0.27491609  1
  Fe  Fe27  1  0.25953194  0.03105026  0.48183641  1
  Fe  Fe28  1  0.36412314  0.37765328  0.48270089  1
  Fe  Fe29  1  0.90577288  0.83901032  0.94937550  1
  Fe  Fe30  1  0.56765768  0.72641438  0.83410027  1
  Fe  Fe31  1  0.98832508  0.04460036  0.67882335  1
  O  O32  1  0.04780511  0.67509863  0.34539687  1
  O  O33  1  0.30169320  0.83815699  0.47419342  1
  O  O34  1  0.64954943  0.57572324  0.86454844  1
  O  O35  1  0.59212149  0.11521380  0.49734798  1
  O  O36  1  0.78308376  0.28685139  0.40752402  1
  O  O37  1  0.80441039  0.58940792  0.60693430  1
  O  O38  1  0.55084772  0.31777610  0.08467501  1
  O  O39  1  0.10969371  0.65299675  0.76849741  1
  O  O40  1  0.94751412  0.14815031  0.83921490  1
  O  O41  1  0.42552456  0.38467509  0.29334972  1
  O  O42  1  0.91346381  0.50298773  0.99123333  1
  O  O43  1  0.72699088  0.83892021  0.84979042  1
  O  O44  1  0.27898528  0.50718797  0.59716531  1
  O  O45  1  0.51089401  0.79067500  0.99888935  1
  O  O46  1  0.45792193  0.00630455  0.67505455  1
  O  O47  1  0.18673692  0.36390031  0.33731203  1
  O  O48  1  0.53337874  0.55640988  0.49474509  1
  O  O49  1  0.15455337  0.99117171  0.64309334  1
  O  O50  1  0.97424454  0.15100455  0.25141258  1
  O  O51  1  0.32798595  0.81500708  0.76921947  1
  O  O52  1  0.95209618  0.85979948  0.73656364  1
  O  O53  1  0.41132900  0.16212548  0.85067909  1
  O  O54  1  0.53901428  0.84442965  0.38606448  1
  O  O55  1  0.99349083  0.47137380  0.48514622  1
  O  O56  1  0.83049402  0.24531269  0.04097840  1
  O  O57  1  0.92885278  0.00840947  0.47230395  1
  O  O58  1  0.77252671  0.35963931  0.73891918  1
  O  O59  1  0.18351377  0.95700149  0.89339082  1
  O  O60  1  0.21791663  0.79433869  0.12650401  1
  O  O61  1  0.31167919  0.17376445  0.12118393  1
  O  O62  1  0.75957575  0.50401886  0.25520160  1
  O  O63  1  0.08730406  0.28967892  0.03534651  1
  O  O64  1  0.93820396  0.21212344  0.57733703  1
  O  O65  1  0.51231534  0.36008622  0.63203030  1
  O  O66  1  0.75696290  0.96433576  0.23970164  1
  O  O67  1  0.15003596  0.95962688  0.30356426  1
  O  O68  1  -0.00001981  0.98291863  0.06819848  1
  O  O69  1  0.73997826  0.96701387  0.61062504  1
  O  O70  1  0.56685254  0.77236107  0.63544624  1
  O  O71  1  0.81880062  0.74661138  0.10897143  1
  O  O72  1  0.60983625  0.09545337  0.03562067  1
  O  O73  1  0.80157012  0.76086401  0.43096810  1
  O  O74  1  0.30747827  0.64912123  0.31760340  1
  O  O75  1  0.02981151  0.41046425  0.74416553  1
  O  O76  1  0.24226880  0.50717743  0.08128440  1
  O  O77  1  0.33124176  0.20342299  0.52744117  1
  O  O78  1  0.39067095  0.98262003  0.04386255  1
  O  O79  1  0.56663578  0.64584655  0.19627510  1
