# generated using pymatgen
data_CrFe
_symmetry_space_group_name_H-M   'P 1'
_cell_length_a   9.34707863
_cell_length_b   10.02126080
_cell_length_c   10.93656827
_cell_angle_alpha   90.61432989
_cell_angle_beta   91.27039424
_cell_angle_gamma   86.99544471
_symmetry_Int_Tables_number   1
_chemical_formula_structural   CrFe
_chemical_formula_sum   'Cr16 Fe16'
_cell_volume   1022.71647211
_cell_formula_units_Z   16
loop_
 _symmetry_equiv_pos_site_id
 _symmetry_equiv_pos_as_xyz
  1  'x, y, z'
loop_
 _atom_site_type_symbol
 _atom_site_label
 _atom_site_symmetry_multiplicity
 _atom_site_fract_x
 _atom_site_fract_y
 _atom_site_fract_z
 _atom_site_occupancy
  Cr  Cr0  1  0.50785785  0.92235088  0.89252722  1.0
  Cr  Cr1  1  0.03522293  0.45226508  0.72925711  1.0
  Cr  Cr2  1  0.03655666  0.74972130  0.72068480  1.0
  Cr  Cr3  1  0.68644589  0.62928450  0.71170183  1.0
  Cr  Cr4  1  0.25910559  0.86974258  0.03128502  1.0
  Cr  Cr5  1  0.45580236  0.23736012  0.44601560  1.0
  Cr  Cr6  1  0.35279028  0.94256964  0.28016983  1.0
  Cr  Cr7  1  0.41053697  0.22613909  0.72831943  1.0
  Cr  Cr8  1  0.64641011  0.16919410  0.89971211  1.0
  Cr  Cr9  1  0.71550618  0.75717968  0.28767338  1.0
  Cr  Cr10  1  0.27734661  0.44164620  0.56495320  1.0
  Cr  Cr11  1  0.50656762  0.94276418  0.56561958  1.0
  Cr  Cr12  1  0.40176229  0.66486865  0.42704120  1.0
  Cr  Cr13  1  0.93715008  0.98393557  0.92933810  1.0
  Cr  Cr14  1  0.72471082  0.44343475  0.03178975  1.0
  Cr  Cr15  1  0.24929961  0.40824609  0.97382414  1.0
  Fe  Fe16  1  0.87729944  0.60025135  0.51121364  1.0
  Fe  Fe17  1  0.10935445  0.15165536  0.22871600  1.0
  Fe  Fe18  1  0.39623122  0.16375864  0.11446181  1.0
  Fe  Fe19  1  0.04626736  0.80570612  0.19793969  1.0
  Fe  Fe20  1  0.34161297  0.71510535  0.73780363  1.0
  Fe  Fe21  1  0.01346374  0.62041142  0.97509566  1.0
  Fe  Fe22  1  0.69485370  0.31854960  0.61126278  1.0
  Fe  Fe23  1  0.14133092  0.49656029  0.26167318  1.0
  Fe  Fe24  1  0.43223883  0.62320162  0.15345316  1.0
  Fe  Fe25  1  0.87626173  0.01412773  0.39088900  1.0
  Fe  Fe26  1  0.99516858  0.12896778  0.72016048  1.0
  Fe  Fe27  1  0.01031254  0.23087113  0.98520279  1.0
  Fe  Fe28  1  0.81389090  0.91026829  0.60842361  1.0
  Fe  Fe29  1  0.76362540  0.09783400  0.15288493  1.0
  Fe  Fe30  1  0.14699781  0.83306768  0.47354589  1.0
  Fe  Fe31  1  0.00133188  0.29112947  0.48876924  1.0
