# generated using pymatgen
data_CrFe
_symmetry_space_group_name_H-M   'P 1'
_cell_length_a   10.12006692
_cell_length_b   10.47822614
_cell_length_c   10.91000673
_cell_angle_alpha   93.22044539
_cell_angle_beta   91.68520532
_cell_angle_gamma   97.72577466
_symmetry_Int_Tables_number   1
_chemical_formula_structural   CrFe
_chemical_formula_sum   'Cr16 Fe16'
_cell_volume   1143.79014608
_cell_formula_units_Z   16
loop_
 _symmetry_equiv_pos_site_id
 _symmetry_equiv_pos_as_xyz
  1  'x, y, z'
loop_
 _atom_site_type_symbol
 _atom_site_label
 _atom_site_symmetry_multiplicity
 _atom_site_fract_x
 _atom_site_fract_y
 _atom_site_fract_z
 _atom_site_occupancy
  Cr  Cr0  1  0.07023215  0.63682125  0.15680948  1.0
  Cr  Cr1  1  0.39334825  0.55719446  0.04562704  1.0
  Cr  Cr2  1  0.61849618  0.79116467  0.74697883  1.0
  Cr  Cr3  1  0.22656716  0.02882686  0.60100122  1.0
  Cr  Cr4  1  0.77829147  0.93154158  0.20069275  1.0
  Cr  Cr5  1  0.56987485  0.27453795  0.63074316  1.0
  Cr  Cr6  1  0.25336084  0.12891553  0.27170618  1.0
  Cr  Cr7  1  0.55557740  0.74712536  0.19452909  1.0
  Cr  Cr8  1  0.29609228  0.33590873  0.78271930  1.0
  Cr  Cr9  1  0.48733041  0.41453946  0.25363585  1.0
  Cr  Cr10  1  0.33661762  0.89946005  0.09229336  1.0
  Cr  Cr11  1  0.08239003  0.44139562  0.39889417  1.0
  Cr  Cr12  1  0.99404204  0.10024589  0.35649934  1.0
  Cr  Cr13  1  0.03644919  0.88228132  0.06874141  1.0
  Cr  Cr14  1  0.01457274  0.19321996  0.79623623  1.0
  Cr  Cr15  1  0.31551561  0.28344598  0.50878606  1.0
  Fe  Fe16  1  0.19483468  0.83096982  0.82560401  1.0
  Fe  Fe17  1  0.86529137  0.41882424  0.79247480  1.0
  Fe  Fe18  1  0.02490287  0.74519728  0.63439354  1.0
  Fe  Fe19  1  0.49733508  0.02180254  0.69779450  1.0
  Fe  Fe20  1  0.75974898  0.59633866  0.60923666  1.0
  Fe  Fe21  1  0.55604097  0.10860651  0.13767515  1.0
  Fe  Fe22  1  0.27994004  0.14063953  0.97480751  1.0
  Fe  Fe23  1  0.60119630  0.50738218  0.83576242  1.0
  Fe  Fe24  1  0.87891231  0.23913764  0.54945125  1.0
  Fe  Fe25  1  0.86216450  0.67215928  0.91629932  1.0
  Fe  Fe26  1  0.15843243  0.36748632  0.07478087  1.0
  Fe  Fe27  1  0.55483706  0.74538884  0.47585169  1.0
  Fe  Fe28  1  0.32008347  0.58104850  0.62857587  1.0
  Fe  Fe29  1  0.72253392  0.10500260  0.87067026  1.0
  Fe  Fe30  1  0.74361613  0.33474093  0.04101597  1.0
  Fe  Fe31  1  0.80133849  0.96599913  0.60271359  1.0
