# generated using pymatgen
data_CrFe
_symmetry_space_group_name_H-M   'P 1'
_cell_length_a   9.52382803
_cell_length_b   10.27602693
_cell_length_c   10.52185344
_cell_angle_alpha   96.13554171
_cell_angle_beta   99.54326461
_cell_angle_gamma   83.82262577
_symmetry_Int_Tables_number   1
_chemical_formula_structural   CrFe
_chemical_formula_sum   'Cr16 Fe16'
_cell_volume   1005.42397352
_cell_formula_units_Z   16
loop_
 _symmetry_equiv_pos_site_id
 _symmetry_equiv_pos_as_xyz
  1  'x, y, z'
loop_
 _atom_site_type_symbol
 _atom_site_label
 _atom_site_symmetry_multiplicity
 _atom_site_fract_x
 _atom_site_fract_y
 _atom_site_fract_z
 _atom_site_occupancy
  Cr  Cr0  1  0.51578890  0.05918665  0.81445967  1.0
  Cr  Cr1  1  0.91605197  0.68169576  0.61329842  1.0
  Cr  Cr2  1  0.10129518  0.83514163  0.77312939  1.0
  Cr  Cr3  1  0.28462187  0.54024348  0.63728057  1.0
  Cr  Cr4  1  0.79723476  0.89358806  0.86805798  1.0
  Cr  Cr5  1  0.42350102  0.44754888  0.29049078  1.0
  Cr  Cr6  1  0.75095262  0.17135585  0.97223014  1.0
  Cr  Cr7  1  0.59195678  0.68839468  0.18288589  1.0
  Cr  Cr8  1  0.49428509  0.94566194  0.04932066  1.0
  Cr  Cr9  1  0.27649287  0.29976763  0.77826841  1.0
  Cr  Cr10  1  0.65858025  0.57846953  0.41140225  1.0
  Cr  Cr11  1  0.54741225  0.53652120  0.83913419  1.0
  Cr  Cr12  1  0.83381555  0.40363641  0.78533124  1.0
  Cr  Cr13  1  0.13701233  0.88454472  0.09932429  1.0
  Cr  Cr14  1  0.32991308  0.05049132  0.51267946  1.0
  Cr  Cr15  1  0.58116804  0.04126495  0.31755032  1.0
  Fe  Fe16  1  0.98355709  0.33533881  0.56633204  1.0
  Fe  Fe17  1  0.18567270  0.34587900  0.40367954  1.0
  Fe  Fe18  1  0.84873055  0.90017223  0.17159210  1.0
  Fe  Fe19  1  0.05535195  0.16764193  0.91571587  1.0
  Fe  Fe20  1  0.52628260  0.77940664  0.61819663  1.0
  Fe  Fe21  1  0.98631370  0.07188452  0.64374391  1.0
  Fe  Fe22  1  0.22695447  0.67922548  0.33898764  1.0
  Fe  Fe23  1  0.83175540  0.18429761  0.33715399  1.0
  Fe  Fe24  1  0.62093889  0.26781968  0.53479071  1.0
  Fe  Fe25  1  0.14792779  0.43578247  0.06677793  1.0
  Fe  Fe26  1  0.91203458  0.65001516  0.97513527  1.0
  Fe  Fe27  1  0.01560601  0.89003274  0.43081090  1.0
  Fe  Fe28  1  0.28109633  0.64045561  0.98502425  1.0
  Fe  Fe29  1  0.27225833  0.16434178  0.18419921  1.0
  Fe  Fe30  1  0.87104845  0.37947658  0.15857068  1.0
  Fe  Fe31  1  0.87701330  0.65188028  0.26028410  1.0
