# generated using pymatgen
data_CrFe
_symmetry_space_group_name_H-M   'P 1'
_cell_length_a   9.42668916
_cell_length_b   10.25263582
_cell_length_c   10.89455803
_cell_angle_alpha   95.69280813
_cell_angle_beta   92.83451593
_cell_angle_gamma   94.62760680
_symmetry_Int_Tables_number   1
_chemical_formula_structural   CrFe
_chemical_formula_sum   'Cr16 Fe16'
_cell_volume   1042.57942536
_cell_formula_units_Z   16
loop_
 _symmetry_equiv_pos_site_id
 _symmetry_equiv_pos_as_xyz
  1  'x, y, z'
loop_
 _atom_site_type_symbol
 _atom_site_label
 _atom_site_symmetry_multiplicity
 _atom_site_fract_x
 _atom_site_fract_y
 _atom_site_fract_z
 _atom_site_occupancy
  Cr  Cr0  1  0.89223116  0.91909403  0.33388637  1.0
  Cr  Cr1  1  0.03458644  0.47058766  0.16995266  1.0
  Cr  Cr2  1  0.47051915  0.78214794  0.11045220  1.0
  Cr  Cr3  1  0.09730595  0.20952996  0.97439356  1.0
  Cr  Cr4  1  0.59040205  0.87449531  0.36507037  1.0
  Cr  Cr5  1  0.47655737  0.43526922  0.70833809  1.0
  Cr  Cr6  1  0.73523579  0.14177624  0.83333527  1.0
  Cr  Cr7  1  0.65101183  0.48752003  0.18421407  1.0
  Cr  Cr8  1  0.31796381  0.19411704  0.78521956  1.0
  Cr  Cr9  1  0.67200496  0.64704379  0.48765266  1.0
  Cr  Cr10  1  0.84707882  0.36275365  0.97029223  1.0
  Cr  Cr11  1  0.64164167  0.12229298  0.52551846  1.0
  Cr  Cr12  1  0.64184132  0.77507613  0.79246959  1.0
  Cr  Cr13  1  0.04618701  0.97128610  0.15368690  1.0
  Cr  Cr14  1  0.27632377  0.95580000  0.97848753  1.0
  Cr  Cr15  1  0.55367734  0.56865703  0.94545882  1.0
  Fe  Fe16  1  0.15167505  0.26377282  0.33848139  1.0
  Fe  Fe17  1  0.05062629  0.76501835  0.57842960  1.0
  Fe  Fe18  1  0.39154930  0.02208166  0.28117219  1.0
  Fe  Fe19  1  0.26934210  0.68718925  0.79593875  1.0
  Fe  Fe20  1  0.30356583  0.57019905  0.50656278  1.0
  Fe  Fe21  1  0.03724037  0.66291084  0.92719022  1.0
  Fe  Fe22  1  0.94511487  0.10187540  0.55115024  1.0
  Fe  Fe23  1  0.11555727  0.38318927  0.69076248  1.0
  Fe  Fe24  1  0.41508506  0.87232069  0.60622141  1.0
  Fe  Fe25  1  0.19942221  0.72514004  0.30096929  1.0
  Fe  Fe26  1  0.27491609  0.14221246  0.53109213  1.0
  Fe  Fe27  1  0.48183641  0.25953194  0.03105026  1.0
  Fe  Fe28  1  0.48270089  0.36412314  0.37765328  1.0
  Fe  Fe29  1  0.94937550  0.90577288  0.83901032  1.0
  Fe  Fe30  1  0.83410027  0.56765768  0.72641438  1.0
  Fe  Fe31  1  0.67882335  0.98832508  0.04460036  1.0
