# generated using pymatgen
data_CrFe
_symmetry_space_group_name_H-M   'P 1'
_cell_length_a   9.65559012
_cell_length_b   10.19567215
_cell_length_c   10.50062916
_cell_angle_alpha   91.18242442
_cell_angle_beta   96.66938364
_cell_angle_gamma   92.23564472
_symmetry_Int_Tables_number   1
_chemical_formula_structural   CrFe
_chemical_formula_sum   'Cr16 Fe16'
_cell_volume   1025.63001306
_cell_formula_units_Z   16
loop_
 _symmetry_equiv_pos_site_id
 _symmetry_equiv_pos_as_xyz
  1  'x, y, z'
loop_
 _atom_site_type_symbol
 _atom_site_label
 _atom_site_symmetry_multiplicity
 _atom_site_fract_x
 _atom_site_fract_y
 _atom_site_fract_z
 _atom_site_occupancy
  Cr  Cr0  1  0.16010855  0.87642873  0.50779686  1.0
  Cr  Cr1  1  0.33220118  0.33062339  0.06067727  1.0
  Cr  Cr2  1  0.23448737  0.21929025  0.81776389  1.0
  Cr  Cr3  1  0.41363067  0.46192213  0.72138165  1.0
  Cr  Cr4  1  0.08961853  0.13005944  0.29576350  1.0
  Cr  Cr5  1  0.78336453  0.56882096  0.81791309  1.0
  Cr  Cr6  1  0.01221346  0.80671307  0.25617975  1.0
  Cr  Cr7  1  0.85884940  0.32405753  0.38637528  1.0
  Cr  Cr8  1  0.95228655  0.08324128  0.62536575  1.0
  Cr  Cr9  1  0.20282892  0.65096473  0.72361311  1.0
  Cr  Cr10  1  0.62489932  0.47599451  0.27111605  1.0
  Cr  Cr11  1  0.21177325  0.37234569  0.49199783  1.0
  Cr  Cr12  1  0.24820270  0.56138704  0.23453947  1.0
  Cr  Cr13  1  0.80170222  0.15710251  0.87715721  1.0
  Cr  Cr14  1  0.43870115  0.94093648  0.59030540  1.0
  Cr  Cr15  1  0.69401485  0.01318898  0.45773716  1.0
  Fe  Fe16  1  0.40805429  0.60555927  0.02883776  1.0
  Fe  Fe17  1  0.53223029  0.76107871  0.84651514  1.0
  Fe  Fe18  1  0.85064481  0.87905014  0.98879460  1.0
  Fe  Fe19  1  0.12429544  0.94300954  0.83370204  1.0
  Fe  Fe20  1  0.53715554  0.29141399  0.48000231  1.0
  Fe  Fe21  1  0.28077287  0.93364998  0.12140841  1.0
  Fe  Fe22  1  0.61029303  0.34827348  0.95256200  1.0
  Fe  Fe23  1  0.62622140  0.82393724  0.17076186  1.0
  Fe  Fe24  1  0.51430509  0.66835736  0.43055882  1.0
  Fe  Fe25  1  0.09949022  0.68472653  0.01482196  1.0
  Fe  Fe26  1  0.03732156  0.40338839  0.94233474  1.0
  Fe  Fe27  1  0.51537553  0.05522119  0.93548427  1.0
  Fe  Fe28  1  0.97441602  0.39838339  0.68180636  1.0
  Fe  Fe29  1  0.73283804  0.87438196  0.69809430  1.0
  Fe  Fe30  1  0.85170834  0.57155178  0.15247104  1.0
  Fe  Fe31  1  0.66814138  0.14470350  0.17891491  1.0
