# generated using pymatgen
data_Nb
_symmetry_space_group_name_H-M   'P 1'
_cell_length_a   6.30098253
_cell_length_b   6.30098253
_cell_length_c   13.04401381
_cell_angle_alpha   76.02327614
_cell_angle_beta   76.02327614
_cell_angle_gamma   59.99999441
_symmetry_Int_Tables_number   1
_chemical_formula_structural   Nb
_chemical_formula_sum   Nb8
_cell_volume   430.70060338
_cell_formula_units_Z   8
loop_
 _symmetry_equiv_pos_site_id
 _symmetry_equiv_pos_as_xyz
  1  'x, y, z'
loop_
 _atom_site_type_symbol
 _atom_site_label
 _atom_site_symmetry_multiplicity
 _atom_site_fract_x
 _atom_site_fract_y
 _atom_site_fract_z
 _atom_site_occupancy
  Nb  Nb0  1  0.11386100  0.38613900  0.75000000  1.0
  Nb  Nb1  1  0.38613900  0.75000000  0.75000000  1.0
  Nb  Nb2  1  0.75000000  0.11386100  0.75000000  1.0
  Nb  Nb3  1  0.61386100  0.25000000  0.25000000  1.0
  Nb  Nb4  1  0.25000000  0.88613900  0.25000000  1.0
  Nb  Nb5  1  0.88613900  0.61386100  0.25000000  1.0
  Nb  Nb6  1  0.00000000  0.00000000  0.00000000  1.0
  Nb  Nb7  1  0.50000000  0.50000000  0.50000000  1.0
