# generated using pymatgen
data_Nb
_symmetry_space_group_name_H-M   'P 1'
_cell_length_a   6.23952200
_cell_length_b   6.33082154
_cell_length_c   13.07966799
_cell_angle_alpha   103.84114012
_cell_angle_beta   90.00000000
_cell_angle_gamma   119.52407844
_symmetry_Int_Tables_number   1
_chemical_formula_structural   Nb
_chemical_formula_sum   Nb8
_cell_volume   432.24960801
_cell_formula_units_Z   8
loop_
 _symmetry_equiv_pos_site_id
 _symmetry_equiv_pos_as_xyz
  1  'x, y, z'
loop_
 _atom_site_type_symbol
 _atom_site_label
 _atom_site_symmetry_multiplicity
 _atom_site_fract_x
 _atom_site_fract_y
 _atom_site_fract_z
 _atom_site_occupancy
  Nb  Nb0  1  0.24636900  0.63845700  0.24934600  1.0
  Nb  Nb1  1  0.39208800  0.63845700  0.74934600  1.0
  Nb  Nb2  1  0.60639000  0.36166600  0.24947500  1.0
  Nb  Nb3  1  0.75527600  0.36166600  0.74947500  1.0
  Nb  Nb4  1  0.87424500  0.99207600  0.24217500  1.0
  Nb  Nb5  1  0.11783100  0.99207600  0.74217500  1.0
  Nb  Nb6  1  0.48410500  0.48384400  0.99299200  1.0
  Nb  Nb7  1  0.99973900  0.48384400  0.49299200  1.0
