# generated using pymatgen
data_Nb
_symmetry_space_group_name_H-M   'P 1'
_cell_length_a   6.26166242
_cell_length_b   6.26166242
_cell_length_c   13.24308617
_cell_angle_alpha   76.32510416
_cell_angle_beta   76.32510416
_cell_angle_gamma   59.99999555
_symmetry_Int_Tables_number   1
_chemical_formula_structural   Nb
_chemical_formula_sum   Nb8
_cell_volume   432.59587485
_cell_formula_units_Z   8
loop_
 _symmetry_equiv_pos_site_id
 _symmetry_equiv_pos_as_xyz
  1  'x, y, z'
loop_
 _atom_site_type_symbol
 _atom_site_label
 _atom_site_symmetry_multiplicity
 _atom_site_fract_x
 _atom_site_fract_y
 _atom_site_fract_z
 _atom_site_occupancy
  Nb  Nb0  1  0.00393700  0.00393700  0.98818900  1.0
  Nb  Nb1  1  0.50393700  0.50393700  0.48818900  1.0
  Nb  Nb2  1  0.62198400  0.88507200  0.24555300  1.0
  Nb  Nb3  1  0.24739100  0.62198400  0.24555300  1.0
  Nb  Nb4  1  0.88507200  0.24739100  0.24555300  1.0
  Nb  Nb5  1  0.38507200  0.12198400  0.74555300  1.0
  Nb  Nb6  1  0.12198400  0.74739100  0.74555300  1.0
  Nb  Nb7  1  0.74739100  0.38507200  0.74555300  1.0
