# generated using pymatgen
data_FeCo
_symmetry_space_group_name_H-M   'P 1'
_cell_length_a   5.47435331
_cell_length_b   5.48004286
_cell_length_c   5.52499566
_cell_angle_alpha   119.64771061
_cell_angle_beta   119.55447123
_cell_angle_gamma   90.14188628
_symmetry_Int_Tables_number   1
_chemical_formula_structural   FeCo
_chemical_formula_sum   'Fe1 Co1'
_cell_volume   118.46007271
_cell_formula_units_Z   1
loop_
 _symmetry_equiv_pos_site_id
 _symmetry_equiv_pos_as_xyz
  1  'x, y, z'
loop_
 _atom_site_type_symbol
 _atom_site_label
 _atom_site_symmetry_multiplicity
 _atom_site_fract_x
 _atom_site_fract_y
 _atom_site_fract_z
 _atom_site_occupancy
  Co  Co0  1  0.49041500  0.49512500  0.98985050  1.0
  Fe  Fe1  1  0.99817800  0.00097800  0.00171350  1.0
