# generated using pymatgen
data_MnCo
_symmetry_space_group_name_H-M   'P 1'
_cell_length_a   6.39927121
_cell_length_b   6.40256339
_cell_length_c   6.41116513
_cell_angle_alpha   92.00886311
_cell_angle_beta   91.99047971
_cell_angle_gamma   91.94515786
_symmetry_Int_Tables_number   1
_chemical_formula_structural   MnCo
_chemical_formula_sum   'Mn2 Co2'
_cell_volume   262.19413675
_cell_formula_units_Z   2
loop_
 _symmetry_equiv_pos_site_id
 _symmetry_equiv_pos_as_xyz
  1  'x, y, z'
loop_
 _atom_site_type_symbol
 _atom_site_label
 _atom_site_symmetry_multiplicity
 _atom_site_fract_x
 _atom_site_fract_y
 _atom_site_fract_z
 _atom_site_occupancy
  Mn  Mn0  1  0.49980500  0.49948400  0.50081200  1.0
  Mn  Mn1  1  0.99919400  0.00022600  0.00056800  1.0
  Co  Co2  1  0.74941400  0.75382200  0.74683600  1.0
  Co  Co3  1  0.25421800  0.24715300  0.24869800  1.0
