# generated using pymatgen
data_Fe
_symmetry_space_group_name_H-M   'P 1'
_cell_length_a   4.88187461
_cell_length_b   6.17174339
_cell_length_c   10.59971801
_cell_angle_alpha   89.95918337
_cell_angle_beta   90.05742219
_cell_angle_gamma   89.99891576
_symmetry_Int_Tables_number   1
_chemical_formula_structural   Fe
_chemical_formula_sum   Fe8
_cell_volume   319.36584221
_cell_formula_units_Z   8
loop_
 _symmetry_equiv_pos_site_id
 _symmetry_equiv_pos_as_xyz
  1  'x, y, z'
loop_
 _atom_site_type_symbol
 _atom_site_label
 _atom_site_symmetry_multiplicity
 _atom_site_fract_x
 _atom_site_fract_y
 _atom_site_fract_z
 _atom_site_occupancy
  Fe  Fe0  1  0.01376600  0.24987600  0.72041100  1.0
  Fe  Fe1  1  0.98623400  0.75012500  0.27958800  1.0
  Fe  Fe2  1  0.00000200  0.49999900  0.00000100  1.0
  Fe  Fe3  1  0.99999800  0.99999900  1.00000000  1.0
  Fe  Fe4  1  0.51381700  0.75012900  0.77970400  1.0
  Fe  Fe5  1  0.48618100  0.24987200  0.22029500  1.0
  Fe  Fe6  1  0.50000000  0.50000100  0.50000000  1.0
  Fe  Fe7  1  0.50000100  0.99999900  0.50000000  1.0
