# generated using pymatgen
data_Fe
_symmetry_space_group_name_H-M   'P 1'
_cell_length_a   4.88556103
_cell_length_b   6.18080863
_cell_length_c   10.58924758
_cell_angle_alpha   89.91400206
_cell_angle_beta   90.11504714
_cell_angle_gamma   89.56736192
_symmetry_Int_Tables_number   1
_chemical_formula_structural   Fe
_chemical_formula_sum   Fe8
_cell_volume   319.75039269
_cell_formula_units_Z   8
loop_
 _symmetry_equiv_pos_site_id
 _symmetry_equiv_pos_as_xyz
  1  'x, y, z'
loop_
 _atom_site_type_symbol
 _atom_site_label
 _atom_site_symmetry_multiplicity
 _atom_site_fract_x
 _atom_site_fract_y
 _atom_site_fract_z
 _atom_site_occupancy
  Fe  Fe0  1  0.49975500  0.49997000  0.49991200  1.0
  Fe  Fe1  1  0.00006800  0.50005900  0.00007900  1.0
  Fe  Fe2  1  0.49997800  0.99999100  0.50006100  1.0
  Fe  Fe3  1  0.00013300  0.99986800  0.99992800  1.0
  Fe  Fe4  1  0.48121300  0.75050500  0.22036600  1.0
  Fe  Fe5  1  0.98015600  0.24985400  0.27951200  1.0
  Fe  Fe6  1  0.51876200  0.24960900  0.77956600  1.0
  Fe  Fe7  1  0.01984000  0.75018100  0.72060600  1.0
