# generated using pymatgen
data_Fe
_symmetry_space_group_name_H-M   'P 1'
_cell_length_a   5.89034261
_cell_length_b   5.89031857
_cell_length_c   5.89031857
_cell_angle_alpha   90.15254301
_cell_angle_beta   119.91924704
_cell_angle_gamma   119.90498460
_symmetry_Int_Tables_number   1
_chemical_formula_structural   Fe
_chemical_formula_sum   Fe4
_cell_volume   144.70282380
_cell_formula_units_Z   4
loop_
 _symmetry_equiv_pos_site_id
 _symmetry_equiv_pos_as_xyz
  1  'x, y, z'
loop_
 _atom_site_type_symbol
 _atom_site_label
 _atom_site_symmetry_multiplicity
 _atom_site_fract_x
 _atom_site_fract_y
 _atom_site_fract_z
 _atom_site_occupancy
  Fe  Fe0  1  0.74999800  0.12499800  0.37500100  1.0
  Fe  Fe1  1  0.24999800  0.62500000  0.37499600  1.0
  Fe  Fe2  1  0.24999600  0.62499900  0.87499300  1.0
  Fe  Fe3  1  0.75000500  0.62500500  0.37500400  1.0
