# generated using pymatgen
data_Cr
_symmetry_space_group_name_H-M   'P 1'
_cell_length_a   7.85033943
_cell_length_b   9.70987908
_cell_length_c   10.52030716
_cell_angle_alpha   115.17755067
_cell_angle_beta   109.17805840
_cell_angle_gamma   95.54589905
_symmetry_Int_Tables_number   1
_chemical_formula_structural   Cr
_chemical_formula_sum   Cr6
_cell_volume   658.71989765
_cell_formula_units_Z   6
loop_
 _symmetry_equiv_pos_site_id
 _symmetry_equiv_pos_as_xyz
  1  'x, y, z'
loop_
 _atom_site_type_symbol
 _atom_site_label
 _atom_site_symmetry_multiplicity
 _atom_site_fract_x
 _atom_site_fract_y
 _atom_site_fract_z
 _atom_site_occupancy
  Cr  Cr0  1  0.89003200  0.39003200  0.78006400  1.0
  Cr  Cr1  1  0.89471900  0.89471900  0.78943800  1.0
  Cr  Cr2  1  0.50000000  0.00000000  0.00000000  1.0
  Cr  Cr3  1  0.50000000  0.50000000  1.00000000  1.0
  Cr  Cr4  1  0.10996800  0.60996800  0.21993600  1.0
  Cr  Cr5  1  0.10528100  0.10528100  0.21056200  1.0
