# generated using pymatgen
data_Cr
_symmetry_space_group_name_H-M   'P 1'
_cell_length_a   6.07023000
_cell_length_b   6.07022967
_cell_length_c   19.68237100
_cell_angle_alpha   90.00000000
_cell_angle_beta   90.00000000
_cell_angle_gamma   120.00000182
_symmetry_Int_Tables_number   1
_chemical_formula_structural   Cr
_chemical_formula_sum   Cr6
_cell_volume   628.08483510
_cell_formula_units_Z   6
loop_
 _symmetry_equiv_pos_site_id
 _symmetry_equiv_pos_as_xyz
  1  'x, y, z'
loop_
 _atom_site_type_symbol
 _atom_site_label
 _atom_site_symmetry_multiplicity
 _atom_site_fract_x
 _atom_site_fract_y
 _atom_site_fract_z
 _atom_site_occupancy
  Cr  Cr0  1  0.77772000  0.55544000  0.33333333  1.0
  Cr  Cr1  1  0.11109800  0.22219600  0.33333333  1.0
  Cr  Cr2  1  0.77772000  0.22228000  0.66666667  1.0
  Cr  Cr3  1  0.11109800  0.88890200  0.66666667  1.0
  Cr  Cr4  1  0.77780400  0.88890200  0.00000000  1.0
  Cr  Cr5  1  0.44456000  0.22228000  0.00000000  1.0
