# generated using pymatgen
data_Cr
_symmetry_space_group_name_H-M   'P 1'
_cell_length_a   7.79022869
_cell_length_b   9.06607400
_cell_length_c   10.93900827
_cell_angle_alpha   114.38221847
_cell_angle_beta   110.74738225
_cell_angle_gamma   90.25265534
_symmetry_Int_Tables_number   1
_chemical_formula_structural   Cr
_chemical_formula_sum   Cr6
_cell_volume   647.67364138
_cell_formula_units_Z   6
loop_
 _symmetry_equiv_pos_site_id
 _symmetry_equiv_pos_as_xyz
  1  'x, y, z'
loop_
 _atom_site_type_symbol
 _atom_site_label
 _atom_site_symmetry_multiplicity
 _atom_site_fract_x
 _atom_site_fract_y
 _atom_site_fract_z
 _atom_site_occupancy
  Cr  Cr0  1  0.12418500  0.62418500  0.24837000  1.0
  Cr  Cr1  1  0.87581500  0.37581500  0.75163000  1.0
  Cr  Cr2  1  0.09367000  0.09367000  0.18734000  1.0
  Cr  Cr3  1  0.90633000  0.90633000  0.81266000  1.0
  Cr  Cr4  1  0.50000000  0.00000000  0.00000000  1.0
  Cr  Cr5  1  0.50000000  0.50000000  1.00000000  1.0
