# generated using pymatgen
data_Cr
_symmetry_space_group_name_H-M   'P 1'
_cell_length_a   6.06010532
_cell_length_b   6.06010532
_cell_length_c   6.58075245
_cell_angle_alpha   98.59141283
_cell_angle_beta   98.59141283
_cell_angle_gamma   119.99125861
_symmetry_Int_Tables_number   1
_chemical_formula_structural   Cr
_chemical_formula_sum   Cr2
_cell_volume   199.75890794
_cell_formula_units_Z   2
loop_
 _symmetry_equiv_pos_site_id
 _symmetry_equiv_pos_as_xyz
  1  'x, y, z'
loop_
 _atom_site_type_symbol
 _atom_site_label
 _atom_site_symmetry_multiplicity
 _atom_site_fract_x
 _atom_site_fract_y
 _atom_site_fract_z
 _atom_site_occupancy
  Cr  Cr0  1  0.83331900  0.16668100  1.00000000  1.0
  Cr  Cr1  1  0.16668100  0.83331900  0.00000000  1.0
