# generated using pymatgen
data_Ti
_symmetry_space_group_name_H-M   'P 1'
_cell_length_a   9.86497099
_cell_length_b   10.41933835
_cell_length_c   10.43780698
_cell_angle_alpha   89.68104552
_cell_angle_beta   89.77460587
_cell_angle_gamma   85.99296701
_symmetry_Int_Tables_number   1
_chemical_formula_structural   Ti
_chemical_formula_sum   Ti30
_cell_volume   1070.21935881
_cell_formula_units_Z   30
loop_
 _symmetry_equiv_pos_site_id
 _symmetry_equiv_pos_as_xyz
  1  'x, y, z'
loop_
 _atom_site_type_symbol
 _atom_site_label
 _atom_site_symmetry_multiplicity
 _atom_site_fract_x
 _atom_site_fract_y
 _atom_site_fract_z
 _atom_site_occupancy
  Ti  Ti0  1  0.71725227  0.36168263  0.33354223  1.0
  Ti  Ti1  1  0.95391845  0.75097655  0.54410263  1.0
  Ti  Ti2  1  0.25995219  0.53527494  0.48285391  1.0
  Ti  Ti3  1  0.22345460  0.81197913  0.28257476  1.0
  Ti  Ti4  1  0.50674297  0.33339815  0.11418897  1.0
  Ti  Ti5  1  0.00664896  0.55939229  0.21966667  1.0
  Ti  Ti6  1  0.45629219  0.03695711  0.28059066  1.0
  Ti  Ti7  1  0.46671230  0.58153498  0.91188150  1.0
  Ti  Ti8  1  0.43404443  0.79442719  0.63430306  1.0
  Ti  Ti9  1  0.67063473  0.58154414  0.62411166  1.0
  Ti  Ti10  1  0.88781661  0.29798673  0.11090299  1.0
  Ti  Ti11  1  0.65344046  0.01937604  0.53697909  1.0
  Ti  Ti12  1  0.53879372  0.13238707  0.83195632  1.0
  Ti  Ti13  1  0.14687076  0.24232566  0.71148881  1.0
  Ti  Ti14  1  0.77365731  0.99516755  0.06323196  1.0
  Ti  Ti15  1  0.19328287  0.42748612  0.94836630  1.0
  Ti  Ti16  1  0.75358365  0.80547443  0.33642742  1.0
  Ti  Ti17  1  0.79058784  0.25527614  0.59992099  1.0
  Ti  Ti18  1  0.89208575  0.43529803  0.80831092  1.0
  Ti  Ti19  1  0.53182303  0.59872499  0.35823245  1.0
  Ti  Ti20  1  0.05271620  0.78429347  0.03462719  1.0
  Ti  Ti21  1  0.18553973  0.99106178  0.49778735  1.0
  Ti  Ti22  1  0.90060225  0.98531571  0.79089812  1.0
  Ti  Ti23  1  0.05795838  0.31007505  0.41365032  1.0
  Ti  Ti24  1  0.21099450  0.05748158  0.93412859  1.0
  Ti  Ti25  1  0.73694451  0.63709554  0.03357219  1.0
  Ti  Ti26  1  0.08608089  0.08528928  0.22695966  1.0
  Ti  Ti27  1  0.43638744  0.25490748  0.56802607  1.0
  Ti  Ti28  1  0.47630861  0.87687303  0.03217301  1.0
  Ti  Ti29  1  0.19643655  0.65980786  0.74418510  1.0
