# generated using pymatgen
data_Ti
_symmetry_space_group_name_H-M   'P 1'
_cell_length_a   2.98197600
_cell_length_b   4.78941953
_cell_length_c   7.28678543
_cell_angle_alpha   91.89109129
_cell_angle_beta   101.80698171
_cell_angle_gamma   90.00000000
_symmetry_Int_Tables_number   1
_chemical_formula_structural   Ti
_chemical_formula_sum   Ti3
_cell_volume   101.80963095
_cell_formula_units_Z   3
loop_
 _symmetry_equiv_pos_site_id
 _symmetry_equiv_pos_as_xyz
  1  'x, y, z'
loop_
 _atom_site_type_symbol
 _atom_site_label
 _atom_site_symmetry_multiplicity
 _atom_site_fract_x
 _atom_site_fract_y
 _atom_site_fract_z
 _atom_site_occupancy
  Ti  Ti0  1  0.65659800  0.51998800  0.31319600  1.0
  Ti  Ti1  1  0.34340200  0.48001200  0.68680400  1.0
  Ti  Ti2  1  0.00000000  0.00000000  0.00000000  1.0
