# generated using pymatgen
data_Ti
_symmetry_space_group_name_H-M   'P 1'
_cell_length_a   5.93157811
_cell_length_b   5.93157811
_cell_length_c   19.66842058
_cell_angle_alpha   91.27541268
_cell_angle_beta   97.77028632
_cell_angle_gamma   118.54708576
_symmetry_Int_Tables_number   1
_chemical_formula_structural   Ti
_chemical_formula_sum   Ti16
_cell_volume   599.28647045
_cell_formula_units_Z   16
loop_
 _symmetry_equiv_pos_site_id
 _symmetry_equiv_pos_as_xyz
  1  'x, y, z'
loop_
 _atom_site_type_symbol
 _atom_site_label
 _atom_site_symmetry_multiplicity
 _atom_site_fract_x
 _atom_site_fract_y
 _atom_site_fract_z
 _atom_site_occupancy
  Ti  Ti0  1  0.72353200  0.61740100  0.87409200  1.0
  Ti  Ti1  1  0.99145100  0.74618600  0.73763700  1.0
  Ti  Ti2  1  0.25669100  0.15056000  0.87409200  1.0
  Ti  Ti3  1  0.81369600  0.65225200  0.46594800  1.0
  Ti  Ti4  1  0.24979400  0.87369000  0.62206100  1.0
  Ti  Ti5  1  0.67981200  0.09882400  0.77863600  1.0
  Ti  Ti6  1  0.31711300  0.90553800  0.22265100  1.0
  Ti  Ti7  1  0.74837100  0.37226700  0.62206100  1.0
  Ti  Ti8  1  0.75535100  0.12578100  0.37665500  1.0
  Ti  Ti9  1  0.18784800  0.34625400  0.53410200  1.0
  Ti  Ti10  1  0.25087400  0.62130400  0.37665500  1.0
  Ti  Ti11  1  0.75896600  0.89876500  0.13037200  1.0
  Ti  Ti12  1  0.23160700  0.37140600  0.13037200  1.0
  Ti  Ti13  1  0.68846500  0.59475700  0.28322200  1.0
  Ti  Ti14  1  0.49019600  0.50290400  0.99310000  1.0
  Ti  Ti15  1  0.17701200  0.85238000  0.02939200  1.0
