# generated using pymatgen
data_Ti
_symmetry_space_group_name_H-M   'P 1'
_cell_length_a   2.98182700
_cell_length_b   10.79551500
_cell_length_c   17.73849700
_cell_angle_alpha   90.00000000
_cell_angle_beta   90.00000000
_cell_angle_gamma   90.00000000
_symmetry_Int_Tables_number   1
_chemical_formula_structural   Ti
_chemical_formula_sum   Ti16
_cell_volume   571.00857069
_cell_formula_units_Z   16
loop_
 _symmetry_equiv_pos_site_id
 _symmetry_equiv_pos_as_xyz
  1  'x, y, z'
loop_
 _atom_site_type_symbol
 _atom_site_label
 _atom_site_symmetry_multiplicity
 _atom_site_fract_x
 _atom_site_fract_y
 _atom_site_fract_z
 _atom_site_occupancy
  Ti  Ti0  1  0.25000000  0.21765800  0.10071100  1.0
  Ti  Ti1  1  0.25000000  0.28234200  0.60071100  1.0
  Ti  Ti2  1  0.75000000  0.78234200  0.89928900  1.0
  Ti  Ti3  1  0.75000000  0.71765800  0.39928900  1.0
  Ti  Ti4  1  0.75000000  0.49746600  0.17231000  1.0
  Ti  Ti5  1  0.75000000  0.00253400  0.67231000  1.0
  Ti  Ti6  1  0.25000000  0.50253400  0.82769000  1.0
  Ti  Ti7  1  0.25000000  0.99746600  0.32769000  1.0
  Ti  Ti8  1  0.75000000  0.30482400  0.92330300  1.0
  Ti  Ti9  1  0.75000000  0.19517600  0.42330300  1.0
  Ti  Ti10  1  0.25000000  0.69517600  0.07669700  1.0
  Ti  Ti11  1  0.25000000  0.80482400  0.57669700  1.0
  Ti  Ti12  1  0.75000000  0.97650500  0.14545300  1.0
  Ti  Ti13  1  0.75000000  0.52349500  0.64545300  1.0
  Ti  Ti14  1  0.25000000  0.02349500  0.85454700  1.0
  Ti  Ti15  1  0.25000000  0.47650500  0.35454700  1.0
