# generated using pymatgen
data_Ti
_symmetry_space_group_name_H-M   'P 1'
_cell_length_a   4.84383200
_cell_length_b   4.99585600
_cell_length_c   9.44241000
_cell_angle_alpha   90.00000000
_cell_angle_beta   90.00000000
_cell_angle_gamma   90.00000000
_symmetry_Int_Tables_number   1
_chemical_formula_structural   Ti
_chemical_formula_sum   Ti8
_cell_volume   228.49770259
_cell_formula_units_Z   8
loop_
 _symmetry_equiv_pos_site_id
 _symmetry_equiv_pos_as_xyz
  1  'x, y, z'
loop_
 _atom_site_type_symbol
 _atom_site_label
 _atom_site_symmetry_multiplicity
 _atom_site_fract_x
 _atom_site_fract_y
 _atom_site_fract_z
 _atom_site_occupancy
  Ti  Ti0  1  0.74995600  0.95815200  0.38500000  1.0
  Ti  Ti1  1  0.25004400  0.54184800  0.88500000  1.0
  Ti  Ti2  1  0.75004400  0.45815200  0.61500000  1.0
  Ti  Ti3  1  0.24995600  0.04184800  0.11500000  1.0
  Ti  Ti4  1  0.25004400  0.04184800  0.61500000  1.0
  Ti  Ti5  1  0.74995600  0.45815200  0.11500000  1.0
  Ti  Ti6  1  0.24995600  0.54184800  0.38500000  1.0
  Ti  Ti7  1  0.75004400  0.95815200  0.88500000  1.0
