# generated using pymatgen
data_Ti
_symmetry_space_group_name_H-M   'P 1'
_cell_length_a   3.76693600
_cell_length_b   6.43536802
_cell_length_c   6.61621224
_cell_angle_alpha   106.18218444
_cell_angle_beta   90.00000000
_cell_angle_gamma   107.01814136
_symmetry_Int_Tables_number   1
_chemical_formula_structural   Ti
_chemical_formula_sum   Ti4
_cell_volume   146.70628219
_cell_formula_units_Z   4
loop_
 _symmetry_equiv_pos_site_id
 _symmetry_equiv_pos_as_xyz
  1  'x, y, z'
loop_
 _atom_site_type_symbol
 _atom_site_label
 _atom_site_symmetry_multiplicity
 _atom_site_fract_x
 _atom_site_fract_y
 _atom_site_fract_z
 _atom_site_occupancy
  Ti  Ti0  1  0.80471400  0.60942800  0.71623800  1.0
  Ti  Ti1  1  0.09992900  0.19985800  0.71039800  1.0
  Ti  Ti2  1  0.19528600  0.39057200  0.28376200  1.0
  Ti  Ti3  1  0.90007100  0.80014200  0.28960200  1.0
