# generated using pymatgen
data_Ti
_symmetry_space_group_name_H-M   'P 1'
_cell_length_a   4.61023700
_cell_length_b   5.56601000
_cell_length_c   14.96758300
_cell_angle_alpha   90.00000000
_cell_angle_beta   90.00000000
_cell_angle_gamma   90.00000000
_symmetry_Int_Tables_number   1
_chemical_formula_structural   Ti
_chemical_formula_sum   Ti12
_cell_volume   384.07753818
_cell_formula_units_Z   12
loop_
 _symmetry_equiv_pos_site_id
 _symmetry_equiv_pos_as_xyz
  1  'x, y, z'
loop_
 _atom_site_type_symbol
 _atom_site_label
 _atom_site_symmetry_multiplicity
 _atom_site_fract_x
 _atom_site_fract_y
 _atom_site_fract_z
 _atom_site_occupancy
  Ti  Ti0  1  0.00156200  0.34979600  0.08349700  1.0
  Ti  Ti1  1  0.00000000  0.03612100  0.25000000  1.0
  Ti  Ti2  1  0.99843800  0.34979600  0.41650300  1.0
  Ti  Ti3  1  0.00000000  0.96387900  0.75000000  1.0
  Ti  Ti4  1  0.00156200  0.65020400  0.58349700  1.0
  Ti  Ti5  1  0.99843800  0.65020400  0.91650300  1.0
  Ti  Ti6  1  0.49843800  0.15020400  0.58349700  1.0
  Ti  Ti7  1  0.50000000  0.53612100  0.25000000  1.0
  Ti  Ti8  1  0.50000000  0.46387900  0.75000000  1.0
  Ti  Ti9  1  0.50156200  0.15020400  0.91650300  1.0
  Ti  Ti10  1  0.50156200  0.84979600  0.41650300  1.0
  Ti  Ti11  1  0.49843800  0.84979600  0.08349700  1.0
