# generated using pymatgen
data_Ti
_symmetry_space_group_name_H-M   'P 1'
_cell_length_a   10.26961624
_cell_length_b   10.56895485
_cell_length_c   10.58039410
_cell_angle_alpha   89.52173276
_cell_angle_beta   91.00028904
_cell_angle_gamma   89.63335264
_symmetry_Int_Tables_number   1
_chemical_formula_structural   Ti
_chemical_formula_sum   Ti30
_cell_volume   1148.14695394
_cell_formula_units_Z   30
loop_
 _symmetry_equiv_pos_site_id
 _symmetry_equiv_pos_as_xyz
  1  'x, y, z'
loop_
 _atom_site_type_symbol
 _atom_site_label
 _atom_site_symmetry_multiplicity
 _atom_site_fract_x
 _atom_site_fract_y
 _atom_site_fract_z
 _atom_site_occupancy
  Ti  Ti0  1  0.20267225  0.36639582  0.65508182  1.0
  Ti  Ti1  1  0.82301559  0.55917871  0.92895497  1.0
  Ti  Ti2  1  0.52972484  0.41836207  0.22359164  1.0
  Ti  Ti3  1  0.75683119  0.17853715  0.31723930  1.0
  Ti  Ti4  1  0.34681877  0.10638764  0.62633071  1.0
  Ti  Ti5  1  0.44647947  0.21096213  0.98136804  1.0
  Ti  Ti6  1  0.02760733  0.40264403  0.40857345  1.0
  Ti  Ti7  1  0.69338794  0.89652601  0.47778872  1.0
  Ti  Ti8  1  0.77376419  0.57661606  0.41866462  1.0
  Ti  Ti9  1  0.64104192  0.65132406  0.65012499  1.0
  Ti  Ti10  1  0.22912356  0.93844151  0.91296512  1.0
  Ti  Ti11  1  0.96283388  0.57665051  0.68226653  1.0
  Ti  Ti12  1  0.14698522  0.83648505  0.57579171  1.0
  Ti  Ti13  1  0.30185046  0.67534086  0.12877834  1.0
  Ti  Ti14  1  0.93440860  0.02283457  0.74299409  1.0
  Ti  Ti15  1  0.43227544  0.03179073  0.28601216  1.0
  Ti  Ti16  1  0.82198368  0.32843037  0.67324507  1.0
  Ti  Ti17  1  0.29669340  0.65757941  0.74107295  1.0
  Ti  Ti18  1  0.54515097  0.70095905  0.91096599  1.0
  Ti  Ti19  1  0.51694664  0.35076298  0.50882228  1.0
  Ti  Ti20  1  0.67895751  0.03722174  0.05379549  1.0
  Ti  Ti21  1  0.01224530  0.54714038  0.14974461  1.0
  Ti  Ti22  1  0.89258775  0.84990695  0.01777695  1.0
  Ti  Ti23  1  0.31121041  0.45336574  0.96476925  1.0
  Ti  Ti24  1  0.13043149  0.87815762  0.23867076  1.0
  Ti  Ti25  1  0.63584069  0.99100040  0.78315394  1.0
  Ti  Ti26  1  0.19403816  0.23675104  0.20193206  1.0
  Ti  Ti27  1  0.31642487  0.57189281  0.44449483  1.0
  Ti  Ti28  1  0.99615053  0.07248560  0.41886817  1.0
  Ti  Ti29  1  0.65657870  0.71068495  0.17860426  1.0
