# generated using pymatgen
data_Ti
_symmetry_space_group_name_H-M   'P 1'
_cell_length_a   10.48617575
_cell_length_b   10.59112424
_cell_length_c   10.78473697
_cell_angle_alpha   83.35628195
_cell_angle_beta   89.96794575
_cell_angle_gamma   83.83199623
_symmetry_Int_Tables_number   1
_chemical_formula_structural   Ti
_chemical_formula_sum   Ti30
_cell_volume   1182.74131132
_cell_formula_units_Z   30
loop_
 _symmetry_equiv_pos_site_id
 _symmetry_equiv_pos_as_xyz
  1  'x, y, z'
loop_
 _atom_site_type_symbol
 _atom_site_label
 _atom_site_symmetry_multiplicity
 _atom_site_fract_x
 _atom_site_fract_y
 _atom_site_fract_z
 _atom_site_occupancy
  Ti  Ti0  1  0.38516657  0.17952645  0.34793840  1.0
  Ti  Ti1  1  0.52685861  0.85582755  0.10086860  1.0
  Ti  Ti2  1  0.64302283  0.52256487  0.80652508  1.0
  Ti  Ti3  1  0.19929252  0.75344649  0.79094852  1.0
  Ti  Ti4  1  0.07341547  0.29551092  0.43981192  1.0
  Ti  Ti5  1  0.20481559  0.42214903  0.16314093  1.0
  Ti  Ti6  1  0.26346857  0.99532479  0.56025093  1.0
  Ti  Ti7  1  0.08098203  0.55775202  0.52110267  1.0
  Ti  Ti8  1  0.76243345  0.63806758  0.54453448  1.0
  Ti  Ti9  1  0.45512206  0.48469839  0.36854102  1.0
  Ti  Ti10  1  0.82894171  0.37323129  0.03956430  1.0
  Ti  Ti11  1  0.54039026  0.89706516  0.42671462  1.0
  Ti  Ti12  1  0.80119626  0.08563442  0.43012470  1.0
  Ti  Ti13  1  0.63600764  0.07196953  0.87230164  1.0
  Ti  Ti14  1  0.02715781  0.16630311  0.18658839  1.0
  Ti  Ti15  1  0.81090273  0.30487459  0.65396089  1.0
  Ti  Ti16  1  0.25659341  0.87502189  0.30017641  1.0
  Ti  Ti17  1  0.60744818  0.29867241  0.22995201  1.0
  Ti  Ti18  1  0.73561038  0.60449142  0.22234831  1.0
  Ti  Ti19  1  0.37316874  0.68390877  0.56013857  1.0
  Ti  Ti20  1  0.16762247  0.92344603  0.04584438  1.0
  Ti  Ti21  1  0.48629498  0.83016945  0.76706714  1.0
  Ti  Ti22  1  0.84005795  0.85860391  0.01416713  1.0
  Ti  Ti23  1  0.39495726  0.31849890  0.90019958  1.0
  Ti  Ti24  1  0.95964779  0.10511230  0.90403011  1.0
  Ti  Ti25  1  0.02789826  0.66002949  0.24876760  1.0
  Ti  Ti26  1  0.28492260  0.26466616  0.64090026  1.0
  Ti  Ti27  1  0.56816668  0.16328775  0.61382843  1.0
  Ti  Ti28  1  0.97051797  0.87519922  0.51448660  1.0
  Ti  Ti29  1  0.95038941  0.68780256  0.76122005  1.0
