# generated using pymatgen
data_Ti
_symmetry_space_group_name_H-M   'P 1'
_cell_length_a   10.32659754
_cell_length_b   10.36447698
_cell_length_c   10.63076341
_cell_angle_alpha   88.21207589
_cell_angle_beta   86.00501345
_cell_angle_gamma   88.82900072
_symmetry_Int_Tables_number   1
_chemical_formula_structural   Ti
_chemical_formula_sum   Ti30
_cell_volume   1134.30069086
_cell_formula_units_Z   30
loop_
 _symmetry_equiv_pos_site_id
 _symmetry_equiv_pos_as_xyz
  1  'x, y, z'
loop_
 _atom_site_type_symbol
 _atom_site_label
 _atom_site_symmetry_multiplicity
 _atom_site_fract_x
 _atom_site_fract_y
 _atom_site_fract_z
 _atom_site_occupancy
  Ti  Ti0  1  0.69960626  0.76782792  0.16974820  1.0
  Ti  Ti1  1  0.50863396  0.21594766  0.06317436  1.0
  Ti  Ti2  1  0.41924964  0.50976258  0.73539375  1.0
  Ti  Ti3  1  0.77268901  0.19276369  0.76191154  1.0
  Ti  Ti4  1  0.85516377  0.67474393  0.47328644  1.0
  Ti  Ti5  1  0.75634513  0.49183018  0.24736875  1.0
  Ti  Ti6  1  0.69009047  0.96628565  0.56539981  1.0
  Ti  Ti7  1  0.00506666  0.41210111  0.57756128  1.0
  Ti  Ti8  1  0.28195295  0.25102678  0.46054920  1.0
  Ti  Ti9  1  0.49199663  0.45897356  0.25489209  1.0
  Ti  Ti10  1  0.00385636  0.59697701  0.03953760  1.0
  Ti  Ti11  1  0.44618946  0.99253386  0.34101748  1.0
  Ti  Ti12  1  0.19311706  0.90811209  0.44202526  1.0
  Ti  Ti13  1  0.31544625  0.93468308  0.88821942  1.0
  Ti  Ti14  1  0.99527857  0.88080227  0.20499364  1.0
  Ti  Ti15  1  0.10834277  0.67546022  0.68686205  1.0
  Ti  Ti16  1  0.68628950  0.16498142  0.31120234  1.0
  Ti  Ti17  1  0.40009092  0.77123664  0.16496915  1.0
  Ti  Ti18  1  0.23770156  0.45178390  0.17622438  1.0
  Ti  Ti19  1  0.67542430  0.41930003  0.52661429  1.0
  Ti  Ti20  1  0.84326024  0.09917246  0.06707890  1.0
  Ti  Ti21  1  0.47264377  0.21006506  0.73076522  1.0
  Ti  Ti22  1  0.18102422  0.14596848  0.06125055  1.0
  Ti  Ti23  1  0.57389941  0.71998843  0.87823187  1.0
  Ti  Ti24  1  0.06018866  0.98702865  0.77795214  1.0
  Ti  Ti25  1  0.99507141  0.34172334  0.27766390  1.0
  Ti  Ti26  1  0.87568558  0.78762867  0.87351722  1.0
  Ti  Ti27  1  0.38805921  0.79747042  0.63406241  1.0
  Ti  Ti28  1  0.94902072  0.12450378  0.53752554  1.0
  Ti  Ti29  1  0.15305087  0.31310406  0.78021699  1.0
