# generated using pymatgen
data_Ti
_symmetry_space_group_name_H-M   'P 1'
_cell_length_a   6.02819800
_cell_length_b   6.02819834
_cell_length_c   14.61580800
_cell_angle_alpha   90.00000000
_cell_angle_beta   90.00000000
_cell_angle_gamma   119.99999813
_symmetry_Int_Tables_number   1
_chemical_formula_structural   Ti
_chemical_formula_sum   Ti12
_cell_volume   459.96894465
_cell_formula_units_Z   12
loop_
 _symmetry_equiv_pos_site_id
 _symmetry_equiv_pos_as_xyz
  1  'x, y, z'
loop_
 _atom_site_type_symbol
 _atom_site_label
 _atom_site_symmetry_multiplicity
 _atom_site_fract_x
 _atom_site_fract_y
 _atom_site_fract_z
 _atom_site_occupancy
  Ti  Ti0  1  0.68837100  0.84418600  0.16413100  1.0
  Ti  Ti1  1  0.15581500  0.31163000  0.16413100  1.0
  Ti  Ti2  1  0.02215800  0.51107900  0.49247100  1.0
  Ti  Ti3  1  0.15581500  0.84418600  0.16413100  1.0
  Ti  Ti4  1  0.48892100  0.97784200  0.49247100  1.0
  Ti  Ti5  1  0.66666667  0.33333333  0.64778700  1.0
  Ti  Ti6  1  0.66666667  0.33333333  0.28427000  1.0
  Ti  Ti7  1  0.34508500  0.17254200  0.83126400  1.0
  Ti  Ti8  1  0.48892100  0.51107900  0.49247100  1.0
  Ti  Ti9  1  0.82745700  0.65491400  0.83126400  1.0
  Ti  Ti10  1  0.82745700  0.17254200  0.83126400  1.0
  Ti  Ti11  1  0.33333333  0.66666667  0.95684500  1.0
