# generated using pymatgen
data_Ti
_symmetry_space_group_name_H-M   'P 1'
_cell_length_a   3.01680600
_cell_length_b   9.59644600
_cell_length_c   11.04782100
_cell_angle_alpha   90.00000000
_cell_angle_beta   90.00000000
_cell_angle_gamma   90.00000000
_symmetry_Int_Tables_number   1
_chemical_formula_structural   Ti
_chemical_formula_sum   Ti8
_cell_volume   319.84122199
_cell_formula_units_Z   8
loop_
 _symmetry_equiv_pos_site_id
 _symmetry_equiv_pos_as_xyz
  1  'x, y, z'
loop_
 _atom_site_type_symbol
 _atom_site_label
 _atom_site_symmetry_multiplicity
 _atom_site_fract_x
 _atom_site_fract_y
 _atom_site_fract_z
 _atom_site_occupancy
  Ti  Ti0  1  0.75000000  0.51751000  0.86833200  1.0
  Ti  Ti1  1  0.25000000  0.73613000  0.65544300  1.0
  Ti  Ti2  1  0.75000000  0.76387000  0.15544300  1.0
  Ti  Ti3  1  0.25000000  0.98249000  0.36833200  1.0
  Ti  Ti4  1  0.75000000  0.01751000  0.63166800  1.0
  Ti  Ti5  1  0.25000000  0.23613000  0.84455700  1.0
  Ti  Ti6  1  0.75000000  0.26387000  0.34455700  1.0
  Ti  Ti7  1  0.25000000  0.48249000  0.13166800  1.0
