# generated using pymatgen
data_Ti
_symmetry_space_group_name_H-M   'P 1'
_cell_length_a   5.89469779
_cell_length_b   5.89469779
_cell_length_c   5.89469814
_cell_angle_alpha   61.42898102
_cell_angle_beta   61.42898102
_cell_angle_gamma   61.42898117
_symmetry_Int_Tables_number   1
_chemical_formula_structural   Ti
_chemical_formula_sum   Ti4
_cell_volume   149.48184426
_cell_formula_units_Z   4
loop_
 _symmetry_equiv_pos_site_id
 _symmetry_equiv_pos_as_xyz
  1  'x, y, z'
loop_
 _atom_site_type_symbol
 _atom_site_label
 _atom_site_symmetry_multiplicity
 _atom_site_fract_x
 _atom_site_fract_y
 _atom_site_fract_z
 _atom_site_occupancy
  Ti  Ti0  1  0.75765200  0.75765200  0.75765200  1.0
  Ti  Ti1  1  0.90076300  0.36896400  0.36896400  1.0
  Ti  Ti2  1  0.36896400  0.36896400  0.90076300  1.0
  Ti  Ti3  1  0.36896400  0.90076300  0.36896400  1.0
