# generated using pymatgen
data_Ti
_symmetry_space_group_name_H-M   'P 1'
_cell_length_a   9.90433800
_cell_length_b   11.71480767
_cell_length_c   11.73865301
_cell_angle_alpha   94.19409923
_cell_angle_beta   114.91301601
_cell_angle_gamma   114.98046272
_symmetry_Int_Tables_number   1
_chemical_formula_structural   Ti
_chemical_formula_sum   Ti18
_cell_volume   1066.23434985
_cell_formula_units_Z   18
loop_
 _symmetry_equiv_pos_site_id
 _symmetry_equiv_pos_as_xyz
  1  'x, y, z'
loop_
 _atom_site_type_symbol
 _atom_site_label
 _atom_site_symmetry_multiplicity
 _atom_site_fract_x
 _atom_site_fract_y
 _atom_site_fract_z
 _atom_site_occupancy
  Ti  Ti0  1  0.75167600  0.08403400  0.91688000  1.0
  Ti  Ti1  1  0.56793000  0.08620500  0.58851500  1.0
  Ti  Ti2  1  0.67390500  0.50255700  0.83585000  1.0
  Ti  Ti3  1  0.15813700  0.00815300  0.31988300  1.0
  Ti  Ti4  1  0.07525000  0.24388400  0.41558400  1.0
  Ti  Ti5  1  0.25798300  0.57570800  0.41710400  1.0
  Ti  Ti6  1  0.26219300  0.24342000  0.74950900  1.0
  Ti  Ti7  1  0.57488400  0.74899300  0.91889300  1.0
  Ti  Ti8  1  0.16427900  0.67135500  0.64978000  1.0
  Ti  Ti9  1  0.16524800  0.33699400  0.98246400  1.0
  Ti  Ti10  1  0.66562200  0.16663600  0.16969100  1.0
  Ti  Ti11  1  0.75637200  0.41739200  0.58477500  1.0
  Ti  Ti12  1  0.74706900  0.75110600  0.25219300  1.0
  Ti  Ti13  1  0.07367100  0.90878400  0.75019500  1.0
  Ti  Ti14  1  0.57194900  0.41529100  0.25504100  1.0
  Ti  Ti15  1  0.66342500  0.83915200  0.50125600  1.0
  Ti  Ti16  1  0.25169700  0.90640600  0.08451200  1.0
  Ti  Ti17  1  0.07549100  0.57082500  0.08320900  1.0
