# generated using pymatgen
data_Ti
_symmetry_space_group_name_H-M   'P 1'
_cell_length_a   5.94706800
_cell_length_b   5.94706716
_cell_length_c   9.06832600
_cell_angle_alpha   90.00000000
_cell_angle_beta   90.00000000
_cell_angle_gamma   120.00000465
_symmetry_Int_Tables_number   1
_chemical_formula_structural   Ti
_chemical_formula_sum   Ti8
_cell_volume   277.75602145
_cell_formula_units_Z   8
loop_
 _symmetry_equiv_pos_site_id
 _symmetry_equiv_pos_as_xyz
  1  'x, y, z'
loop_
 _atom_site_type_symbol
 _atom_site_label
 _atom_site_symmetry_multiplicity
 _atom_site_fract_x
 _atom_site_fract_y
 _atom_site_fract_z
 _atom_site_occupancy
  Ti  Ti0  1  0.83198900  0.66397800  0.78882400  1.0
  Ti  Ti1  1  0.33602200  0.16801100  0.78882400  1.0
  Ti  Ti2  1  0.66397800  0.83198900  0.28882400  1.0
  Ti  Ti3  1  0.16801100  0.33602200  0.28882400  1.0
  Ti  Ti4  1  0.66666667  0.33333333  0.51028000  1.0
  Ti  Ti5  1  0.83198900  0.16801100  0.78882400  1.0
  Ti  Ti6  1  0.33333333  0.66666667  0.01028000  1.0
  Ti  Ti7  1  0.16801100  0.83198900  0.28882400  1.0
