# generated using pymatgen
data_Ti
_symmetry_space_group_name_H-M   'P 1'
_cell_length_a   2.98093200
_cell_length_b   4.80245000
_cell_length_c   18.70762300
_cell_angle_alpha   90.00000000
_cell_angle_beta   90.00000000
_cell_angle_gamma   90.00000000
_symmetry_Int_Tables_number   1
_chemical_formula_structural   Ti
_chemical_formula_sum   Ti8
_cell_volume   267.81415689
_cell_formula_units_Z   8
loop_
 _symmetry_equiv_pos_site_id
 _symmetry_equiv_pos_as_xyz
  1  'x, y, z'
loop_
 _atom_site_type_symbol
 _atom_site_label
 _atom_site_symmetry_multiplicity
 _atom_site_fract_x
 _atom_site_fract_y
 _atom_site_fract_z
 _atom_site_occupancy
  Ti  Ti0  1  0.25000000  0.09082300  0.56934400  1.0
  Ti  Ti1  1  0.75000000  0.59053800  0.68809800  1.0
  Ti  Ti2  1  0.25000000  0.09053800  0.81190200  1.0
  Ti  Ti3  1  0.75000000  0.59082300  0.93065600  1.0
  Ti  Ti4  1  0.25000000  0.40917700  0.06934400  1.0
  Ti  Ti5  1  0.75000000  0.90946200  0.18809800  1.0
  Ti  Ti6  1  0.25000000  0.40946200  0.31190200  1.0
  Ti  Ti7  1  0.75000000  0.90917700  0.43065600  1.0
