# generated using pymatgen
data_Ti
_symmetry_space_group_name_H-M   'P 1'
_cell_length_a   4.85460200
_cell_length_b   4.91444000
_cell_length_c   5.09281305
_cell_angle_alpha   90.00000000
_cell_angle_beta   79.88265217
_cell_angle_gamma   90.00000000
_symmetry_Int_Tables_number   1
_chemical_formula_structural   Ti
_chemical_formula_sum   Ti4
_cell_volume   119.61319246
_cell_formula_units_Z   4
loop_
 _symmetry_equiv_pos_site_id
 _symmetry_equiv_pos_as_xyz
  1  'x, y, z'
loop_
 _atom_site_type_symbol
 _atom_site_label
 _atom_site_symmetry_multiplicity
 _atom_site_fract_x
 _atom_site_fract_y
 _atom_site_fract_z
 _atom_site_occupancy
  Ti  Ti0  1  0.27685600  0.44363800  0.28428100  1.0
  Ti  Ti1  1  0.72314400  0.94363800  0.21571900  1.0
  Ti  Ti2  1  0.72314400  0.55636200  0.71571900  1.0
  Ti  Ti3  1  0.27685600  0.05636200  0.78428100  1.0
