# generated using pymatgen
data_Co
_symmetry_space_group_name_H-M   'P 1'
_cell_length_a   4.55547600
_cell_length_b   8.36703500
_cell_length_c   8.36703500
_cell_angle_alpha   90.00000000
_cell_angle_beta   90.00000000
_cell_angle_gamma   90.00000000
_symmetry_Int_Tables_number   1
_chemical_formula_structural   Co
_chemical_formula_sum   Co28
_cell_volume   318.91645968
_cell_formula_units_Z   28
loop_
 _symmetry_equiv_pos_site_id
 _symmetry_equiv_pos_as_xyz
  1  'x, y, z'
loop_
 _atom_site_type_symbol
 _atom_site_label
 _atom_site_symmetry_multiplicity
 _atom_site_fract_x
 _atom_site_fract_y
 _atom_site_fract_z
 _atom_site_occupancy
  Co  Co0  1  0.50000000  0.90596200  0.09403800  1.0
  Co  Co1  1  0.50000000  0.09403800  0.90596200  1.0
  Co  Co2  1  0.00000000  0.40596200  0.40596200  1.0
  Co  Co3  1  0.00000000  0.59403800  0.59403800  1.0
  Co  Co4  1  0.50000000  0.97327000  0.36196600  1.0
  Co  Co5  1  0.50000000  0.02673000  0.63803400  1.0
  Co  Co6  1  0.00000000  0.47327000  0.13803400  1.0
  Co  Co7  1  0.00000000  0.52673000  0.86196600  1.0
  Co  Co8  1  0.50000000  0.36196600  0.97327000  1.0
  Co  Co9  1  0.50000000  0.63803400  0.02673000  1.0
  Co  Co10  1  0.00000000  0.13803400  0.47327000  1.0
  Co  Co11  1  1.00000000  0.86196600  0.52673000  1.0
  Co  Co12  1  0.50000000  0.25173900  0.44440900  1.0
  Co  Co13  1  0.50000000  0.74826100  0.55559100  1.0
  Co  Co14  1  0.00000000  0.75173900  0.05559100  1.0
  Co  Co15  1  0.00000000  0.24826100  0.94440900  1.0
  Co  Co16  1  0.50000000  0.44440900  0.25173900  1.0
  Co  Co17  1  0.50000000  0.55559100  0.74826100  1.0
  Co  Co18  1  0.00000000  0.05559100  0.75173900  1.0
  Co  Co19  1  0.00000000  0.94440900  0.24826100  1.0
  Co  Co20  1  0.24956600  0.68634800  0.31365200  1.0
  Co  Co21  1  0.24956600  0.31365200  0.68634800  1.0
  Co  Co22  1  0.74956600  0.18634800  0.18634800  1.0
  Co  Co23  1  0.74956600  0.81365200  0.81365200  1.0
  Co  Co24  1  0.75043400  0.31365200  0.68634800  1.0
  Co  Co25  1  0.75043400  0.68634800  0.31365200  1.0
  Co  Co26  1  0.25043400  0.81365200  0.81365200  1.0
  Co  Co27  1  0.25043400  0.18634800  0.18634800  1.0
