# generated using pymatgen
data_ErMn
_symmetry_space_group_name_H-M   'P 1'
_cell_length_a   6.17366000
_cell_length_b   6.17366052
_cell_length_c   11.51732900
_cell_angle_alpha   90.00000000
_cell_angle_beta   90.00000000
_cell_angle_gamma   119.99999719
_symmetry_Int_Tables_number   1
_chemical_formula_structural   ErMn
_chemical_formula_sum   'Er6 Mn6'
_cell_volume   380.16126953
_cell_formula_units_Z   6
loop_
 _symmetry_equiv_pos_site_id
 _symmetry_equiv_pos_as_xyz
  1  'x, y, z'
loop_
 _atom_site_type_symbol
 _atom_site_label
 _atom_site_symmetry_multiplicity
 _atom_site_fract_x
 _atom_site_fract_y
 _atom_site_fract_z
 _atom_site_occupancy
  Er  Er0  1  0.33333333  0.66666667  0.77122900  1.0
  Er  Er1  1  0.66666667  0.33333333  0.27122900  1.0
  Er  Er2  1  0.33333333  0.66666667  0.27122900  1.0
  Er  Er3  1  0.66666667  0.33333333  0.77122900  1.0
  Er  Er4  1  0.00000000  0.00000000  0.22738600  1.0
  Er  Er5  1  0.00000000  0.00000000  0.72738600  1.0
  Mn  Mn6  1  0.33341300  0.33341300  0.50221900  1.0
  Mn  Mn7  1  0.33341300  0.00000000  0.00221900  1.0
  Mn  Mn8  1  0.00000000  0.33341300  0.00221900  1.0
  Mn  Mn9  1  0.00000000  0.66658700  0.50221900  1.0
  Mn  Mn10  1  0.66658700  0.00000000  0.50221900  1.0
  Mn  Mn11  1  0.66658700  0.66658700  0.00221900  1.0
