# generated using pymatgen
data_Ti
_symmetry_space_group_name_H-M   'P 1'
_cell_length_a   3.91524600
_cell_length_b   8.75671549
_cell_length_c   9.69479512
_cell_angle_alpha   102.55554655
_cell_angle_beta   90.00000000
_cell_angle_gamma   102.91802535
_symmetry_Int_Tables_number   1
_chemical_formula_structural   Ti
_chemical_formula_sum   Ti6
_cell_volume   315.81041925
_cell_formula_units_Z   6
loop_
 _symmetry_equiv_pos_site_id
 _symmetry_equiv_pos_as_xyz
  1  'x, y, z'
loop_
 _atom_site_type_symbol
 _atom_site_label
 _atom_site_symmetry_multiplicity
 _atom_site_fract_x
 _atom_site_fract_y
 _atom_site_fract_z
 _atom_site_occupancy
  Ti  Ti0  1  0.16726400  0.33452800  0.69861200  1.0
  Ti  Ti1  1  0.83273600  0.66547200  0.30138800  1.0
  Ti  Ti2  1  0.79497200  0.58994400  0.62645900  1.0
  Ti  Ti3  1  0.20502800  0.41005600  0.37354100  1.0
  Ti  Ti4  1  0.96207800  0.92415600  0.79115700  1.0
  Ti  Ti5  1  0.03792200  0.07584400  0.20884300  1.0
