# generated using pymatgen
data_Ti
_symmetry_space_group_name_H-M   'P 1'
_cell_length_a   3.94525100
_cell_length_b   10.52300300
_cell_length_c   11.00939900
_cell_angle_alpha   90.00000000
_cell_angle_beta   90.00000000
_cell_angle_gamma   90.00000000
_symmetry_Int_Tables_number   1
_chemical_formula_structural   Ti
_chemical_formula_sum   Ti8
_cell_volume   457.06497703
_cell_formula_units_Z   8
loop_
 _symmetry_equiv_pos_site_id
 _symmetry_equiv_pos_as_xyz
  1  'x, y, z'
loop_
 _atom_site_type_symbol
 _atom_site_label
 _atom_site_symmetry_multiplicity
 _atom_site_fract_x
 _atom_site_fract_y
 _atom_site_fract_z
 _atom_site_occupancy
  Ti  Ti0  1  0.75000000  0.23571400  0.39770800  1.0
  Ti  Ti1  1  0.75000000  0.85206700  0.40733800  1.0
  Ti  Ti2  1  0.25000000  0.14793300  0.59266200  1.0
  Ti  Ti3  1  0.75000000  0.35206700  0.09266200  1.0
  Ti  Ti4  1  0.75000000  0.73571400  0.10229200  1.0
  Ti  Ti5  1  0.25000000  0.26428600  0.89770800  1.0
  Ti  Ti6  1  0.25000000  0.76428600  0.60229200  1.0
  Ti  Ti7  1  0.25000000  0.64793300  0.90733800  1.0
