# generated using pymatgen
data_Ce2Fe
_symmetry_space_group_name_H-M   'P 1'
_cell_length_a   3.91998400
_cell_length_b   6.04669590
_cell_length_c   6.69340058
_cell_angle_alpha   68.15480529
_cell_angle_beta   72.97286647
_cell_angle_gamma   71.08635951
_symmetry_Int_Tables_number   1
_chemical_formula_structural   Ce2Fe
_chemical_formula_sum   'Ce2 Fe1'
_cell_volume   136.60449686
_cell_formula_units_Z   1
loop_
 _symmetry_equiv_pos_site_id
 _symmetry_equiv_pos_as_xyz
  1  'x, y, z'
loop_
 _atom_site_type_symbol
 _atom_site_label
 _atom_site_symmetry_multiplicity
 _atom_site_fract_x
 _atom_site_fract_y
 _atom_site_fract_z
 _atom_site_occupancy
  Ce  Ce0  1  0.30885900  0.14046900  0.24181300  1.0
  Ce  Ce1  1  0.69114100  0.85953100  0.75818700  1.0
  Fe  Fe2  1  0.50000000  0.50000000  0.50000000  1.0
