# generated using pymatgen
data_V
_symmetry_space_group_name_H-M   'P 1'
_cell_length_a   7.03092346
_cell_length_b   7.37672372
_cell_length_c   7.48084203
_cell_angle_alpha   81.10789234
_cell_angle_beta   62.19192077
_cell_angle_gamma   77.57030657
_symmetry_Int_Tables_number   1
_chemical_formula_structural   V
_chemical_formula_sum   V3
_cell_volume   334.48416092
_cell_formula_units_Z   3
loop_
 _symmetry_equiv_pos_site_id
 _symmetry_equiv_pos_as_xyz
  1  'x, y, z'
loop_
 _atom_site_type_symbol
 _atom_site_label
 _atom_site_symmetry_multiplicity
 _atom_site_fract_x
 _atom_site_fract_y
 _atom_site_fract_z
 _atom_site_occupancy
  V  V0  1  0.05138400  0.77533000  0.75085500  1.0
  V  V1  1  0.00000000  0.50000000  0.50000000  1.0
  V  V2  1  0.94861600  0.22467000  0.24914500  1.0
