# generated using pymatgen
data_V
_symmetry_space_group_name_H-M   'P 1'
_cell_length_a   5.35778900
_cell_length_b   8.78766100
_cell_length_c   18.28882800
_cell_angle_alpha   90.00000000
_cell_angle_beta   90.00000000
_cell_angle_gamma   90.00000000
_symmetry_Int_Tables_number   1
_chemical_formula_structural   V
_chemical_formula_sum   V8
_cell_volume   861.08252703
_cell_formula_units_Z   8
loop_
 _symmetry_equiv_pos_site_id
 _symmetry_equiv_pos_as_xyz
  1  'x, y, z'
loop_
 _atom_site_type_symbol
 _atom_site_label
 _atom_site_symmetry_multiplicity
 _atom_site_fract_x
 _atom_site_fract_y
 _atom_site_fract_z
 _atom_site_occupancy
  V  V0  1  0.11935800  0.15268100  0.62475200  1.0
  V  V1  1  0.61935800  0.34731900  0.62475200  1.0
  V  V2  1  0.61935800  0.84731900  0.87524800  1.0
  V  V3  1  0.11935800  0.65268100  0.87524800  1.0
  V  V4  1  0.88064200  0.34731900  0.12475200  1.0
  V  V5  1  0.38064200  0.15268100  0.12475200  1.0
  V  V6  1  0.88064200  0.84731900  0.37524800  1.0
  V  V7  1  0.38064200  0.65268100  0.37524800  1.0
