# generated using pymatgen
data_Nb
_symmetry_space_group_name_H-M   'P 1'
_cell_length_a   3.47030000
_cell_length_b   3.47030090
_cell_length_c   26.57218800
_cell_angle_alpha   90.00000000
_cell_angle_beta   90.00000000
_cell_angle_gamma   119.99999141
_symmetry_Int_Tables_number   1
_chemical_formula_structural   Nb
_chemical_formula_sum   Nb4
_cell_volume   277.13548586
_cell_formula_units_Z   4
loop_
 _symmetry_equiv_pos_site_id
 _symmetry_equiv_pos_as_xyz
  1  'x, y, z'
loop_
 _atom_site_type_symbol
 _atom_site_label
 _atom_site_symmetry_multiplicity
 _atom_site_fract_x
 _atom_site_fract_y
 _atom_site_fract_z
 _atom_site_occupancy
  Nb  Nb0  1  0.33333333  0.66666667  0.50000000  1.0
  Nb  Nb1  1  0.00000000  0.00000000  0.00000000  1.0
  Nb  Nb2  1  0.33333333  0.66666667  0.25048600  1.0
  Nb  Nb3  1  0.33333333  0.66666667  0.74951400  1.0
