# generated using pymatgen
data_Nd
_symmetry_space_group_name_H-M   'P 1'
_cell_length_a   3.70719800
_cell_length_b   7.50546335
_cell_length_c   9.05741714
_cell_angle_alpha   99.84285445
_cell_angle_beta   90.00000000
_cell_angle_gamma   104.29808537
_symmetry_Int_Tables_number   1
_chemical_formula_structural   Nd
_chemical_formula_sum   Nd6
_cell_volume   240.37926025
_cell_formula_units_Z   6
loop_
 _symmetry_equiv_pos_site_id
 _symmetry_equiv_pos_as_xyz
  1  'x, y, z'
loop_
 _atom_site_type_symbol
 _atom_site_label
 _atom_site_symmetry_multiplicity
 _atom_site_fract_x
 _atom_site_fract_y
 _atom_site_fract_z
 _atom_site_occupancy
  Nd  Nd0  1  0.63446600  0.26893200  0.48980900  1.0
  Nd  Nd1  1  0.36553400  0.73106800  0.51019100  1.0
  Nd  Nd2  1  0.30926700  0.61853400  0.86214300  1.0
  Nd  Nd3  1  0.96680200  0.93360400  0.18825100  1.0
  Nd  Nd4  1  0.69073300  0.38146600  0.13785700  1.0
  Nd  Nd5  1  0.03319800  0.06639600  0.81174900  1.0
