# generated using pymatgen
data_Nd
_symmetry_space_group_name_H-M   'P 1'
_cell_length_a   9.68309759
_cell_length_b   9.68309759
_cell_length_c   9.68309759
_cell_angle_alpha   109.47122063
_cell_angle_beta   109.47122064
_cell_angle_gamma   109.47122064
_symmetry_Int_Tables_number   1
_chemical_formula_structural   Nd
_chemical_formula_sum   Nd16
_cell_volume   698.90964838
_cell_formula_units_Z   16
loop_
 _symmetry_equiv_pos_site_id
 _symmetry_equiv_pos_as_xyz
  1  'x, y, z'
loop_
 _atom_site_type_symbol
 _atom_site_label
 _atom_site_symmetry_multiplicity
 _atom_site_fract_x
 _atom_site_fract_y
 _atom_site_fract_z
 _atom_site_occupancy
  Nd  Nd0  1  0.75000000  0.21922300  0.46922300  1.0
  Nd  Nd1  1  0.96922300  0.75000000  0.71922300  1.0
  Nd  Nd2  1  0.21922300  0.96922300  0.25000000  1.0
  Nd  Nd3  1  0.53077700  0.25000000  0.78077700  1.0
  Nd  Nd4  1  0.28077700  0.53077700  0.75000000  1.0
  Nd  Nd5  1  0.25000000  0.28077700  0.03077700  1.0
  Nd  Nd6  1  0.25000000  0.78077700  0.53077700  1.0
  Nd  Nd7  1  0.03077700  0.25000000  0.28077700  1.0
  Nd  Nd8  1  0.78077700  0.03077700  0.75000000  1.0
  Nd  Nd9  1  0.46922300  0.75000000  0.21922300  1.0
  Nd  Nd10  1  0.71922300  0.46922300  0.25000000  1.0
  Nd  Nd11  1  0.75000000  0.71922300  0.96922300  1.0
  Nd  Nd12  1  0.00000000  0.00000000  0.50000000  1.0
  Nd  Nd13  1  0.50000000  0.50000000  0.50000000  1.0
  Nd  Nd14  1  1.00000000  0.50000000  0.00000000  1.0
  Nd  Nd15  1  0.50000000  1.00000000  1.00000000  1.0
