# generated using pymatgen
data_Nb
_symmetry_space_group_name_H-M   'P 1'
_cell_length_a   6.30800410
_cell_length_b   6.30800410
_cell_length_c   12.94249272
_cell_angle_alpha   75.89535881
_cell_angle_beta   75.89535881
_cell_angle_gamma   59.99999898
_symmetry_Int_Tables_number   1
_chemical_formula_structural   Nb
_chemical_formula_sum   Nb8
_cell_volume   427.97595709
_cell_formula_units_Z   8
loop_
 _symmetry_equiv_pos_site_id
 _symmetry_equiv_pos_as_xyz
  1  'x, y, z'
loop_
 _atom_site_type_symbol
 _atom_site_label
 _atom_site_symmetry_multiplicity
 _atom_site_fract_x
 _atom_site_fract_y
 _atom_site_fract_z
 _atom_site_occupancy
  Nb  Nb0  1  0.61278700  0.25000000  0.25000000  1.0
  Nb  Nb1  1  0.25000000  0.88721300  0.25000000  1.0
  Nb  Nb2  1  0.38721300  0.75000000  0.75000000  1.0
  Nb  Nb3  1  0.75000000  0.11278700  0.75000000  1.0
  Nb  Nb4  1  0.88721300  0.61278700  0.25000000  1.0
  Nb  Nb5  1  0.11278700  0.38721300  0.75000000  1.0
  Nb  Nb6  1  0.00000000  0.00000000  0.00000000  1.0
  Nb  Nb7  1  0.50000000  0.50000000  0.50000000  1.0
