# generated using pymatgen
data_Fe2Ni
_symmetry_space_group_name_H-M   'P 1'
_cell_length_a   5.96477876
_cell_length_b   5.96973759
_cell_length_c   5.96972718
_cell_angle_alpha   60.14187702
_cell_angle_beta   60.02759175
_cell_angle_gamma   60.02744323
_symmetry_Int_Tables_number   1
_chemical_formula_structural   Fe2Ni
_chemical_formula_sum   'Fe4 Ni2'
_cell_volume   150.53360704
_cell_formula_units_Z   2
loop_
 _symmetry_equiv_pos_site_id
 _symmetry_equiv_pos_as_xyz
  1  'x, y, z'
loop_
 _atom_site_type_symbol
 _atom_site_label
 _atom_site_symmetry_multiplicity
 _atom_site_fract_x
 _atom_site_fract_y
 _atom_site_fract_z
 _atom_site_occupancy
  Fe  Fe0  1  0.99608400  0.00391700  0.00391700  1.0
  Fe  Fe1  1  0.25391700  0.24608200  0.24608300  1.0
  Fe  Fe2  1  0.62500000  0.62500000  0.12500000  1.0
  Fe  Fe3  1  0.62500000  0.12500000  0.62500000  1.0
  Ni  Ni4  1  0.12500000  0.62500000  0.62500000  1.0
  Ni  Ni5  1  0.62500000  0.62500000  0.62500000  1.0
