# generated using pymatgen
data_Fe2Ni
_symmetry_space_group_name_H-M   'P 1'
_cell_length_a   5.98264639
_cell_length_b   5.98753792
_cell_length_c   24.63080105
_cell_angle_alpha   83.13860419
_cell_angle_beta   89.87475398
_cell_angle_gamma   60.19387608
_symmetry_Int_Tables_number   1
_chemical_formula_structural   Fe2Ni
_chemical_formula_sum   'Fe20 Ni10'
_cell_volume   758.42915860
_cell_formula_units_Z   10
loop_
 _symmetry_equiv_pos_site_id
 _symmetry_equiv_pos_as_xyz
  1  'x, y, z'
loop_
 _atom_site_type_symbol
 _atom_site_label
 _atom_site_symmetry_multiplicity
 _atom_site_fract_x
 _atom_site_fract_y
 _atom_site_fract_z
 _atom_site_occupancy
  Fe  Fe0  1  0.64762000  0.70181700  0.94917800  1.0
  Fe  Fe1  1  0.62894900  0.24787600  0.87549100  1.0
  Fe  Fe2  1  0.12359900  0.24825300  0.87558200  1.0
  Fe  Fe3  1  0.20409300  0.59155100  0.59869700  1.0
  Fe  Fe4  1  0.24727900  0.50579800  0.74958800  1.0
  Fe  Fe5  1  0.12343400  0.75300100  0.87549200  1.0
  Fe  Fe6  1  0.84756000  0.30611600  0.55154600  1.0
  Fe  Fe7  1  0.92535000  0.14942300  0.77500700  1.0
  Fe  Fe8  1  0.80329400  0.39256800  0.39833200  1.0
  Fe  Fe9  1  0.72267400  0.55460100  0.67546500  1.0
  Fe  Fe10  1  0.40538300  0.19013700  0.20016300  1.0
  Fe  Fe11  1  0.44548400  0.10918700  0.35057600  1.0
  Fe  Fe12  1  0.52532100  0.95176800  0.57462700  1.0
  Fe  Fe13  1  0.32526200  0.34973200  0.47492700  1.0
  Fe  Fe14  1  0.12395400  0.75124100  0.37484000  1.0
  Fe  Fe15  1  0.04271500  0.90472400  0.15084700  1.0
  Fe  Fe16  1  0.92500600  0.15051300  0.27450700  1.0
  Fe  Fe17  1  0.51842100  0.45210700  0.07308200  1.0
  Fe  Fe18  1  0.72584900  0.54591900  0.17546400  1.0
  Fe  Fe19  1  0.51977900  0.95566400  0.07340300  1.0
  Ni  Ni20  1  0.00430700  0.99700900  0.00174800  1.0
  Ni  Ni21  1  0.59838100  0.80264200  0.79820600  1.0
  Ni  Ni22  1  0.32497100  0.34910200  0.97609600  1.0
  Ni  Ni23  1  0.22646400  0.04864900  0.67536400  1.0
  Ni  Ni24  1  0.72494500  0.04861700  0.67537700  1.0
  Ni  Ni25  1  0.82509900  0.84984400  0.47507900  1.0
  Ni  Ni26  1  0.32512800  0.84985100  0.47510200  1.0
  Ni  Ni27  1  0.42645000  0.64929600  0.27447400  1.0
  Ni  Ni28  1  0.92440400  0.64905900  0.27432400  1.0
  Ni  Ni29  1  0.02723000  0.45009700  0.07391600  1.0
