# generated using pymatgen
data_Mn
_symmetry_space_group_name_H-M   'P 1'
_cell_length_a   5.75183121
_cell_length_b   5.75192762
_cell_length_c   6.11743095
_cell_angle_alpha   63.66245315
_cell_angle_beta   63.66266690
_cell_angle_gamma   88.38734357
_symmetry_Int_Tables_number   1
_chemical_formula_structural   Mn
_chemical_formula_sum   Mn4
_cell_volume   158.92738660
_cell_formula_units_Z   4
loop_
 _symmetry_equiv_pos_site_id
 _symmetry_equiv_pos_as_xyz
  1  'x, y, z'
loop_
 _atom_site_type_symbol
 _atom_site_label
 _atom_site_symmetry_multiplicity
 _atom_site_fract_x
 _atom_site_fract_y
 _atom_site_fract_z
 _atom_site_occupancy
  Mn  Mn0  1  0.00009700  0.00001200  0.49994800  1.0
  Mn  Mn1  1  0.50009700  0.50012900  0.99986800  1.0
  Mn  Mn2  1  0.99996000  0.49996600  0.50004900  1.0
  Mn  Mn3  1  0.99998700  0.49995600  0.00002900  1.0
