# generated using pymatgen
data_Mn
_symmetry_space_group_name_H-M   'P 1'
_cell_length_a   2.93893625
_cell_length_b   2.93913776
_cell_length_c   10.14702402
_cell_angle_alpha   94.40494761
_cell_angle_beta   94.40292706
_cell_angle_gamma   115.60657457
_symmetry_Int_Tables_number   1
_chemical_formula_structural   Mn
_chemical_formula_sum   Mn2
_cell_volume   78.21561579
_cell_formula_units_Z   2
loop_
 _symmetry_equiv_pos_site_id
 _symmetry_equiv_pos_as_xyz
  1  'x, y, z'
loop_
 _atom_site_type_symbol
 _atom_site_label
 _atom_site_symmetry_multiplicity
 _atom_site_fract_x
 _atom_site_fract_y
 _atom_site_fract_z
 _atom_site_occupancy
  Mn  Mn0  1  0.75487750  0.16530650  0.50094200  1.0
  Mn  Mn1  1  0.66518100  0.25479700  0.00105650  1.0
