# generated using pymatgen
data_Mn
_symmetry_space_group_name_H-M   'P 1'
_cell_length_a   5.92089435
_cell_length_b   5.95643583
_cell_length_c   10.24894739
_cell_angle_alpha   74.90592643
_cell_angle_beta   74.18504588
_cell_angle_gamma   60.46993190
_symmetry_Int_Tables_number   1
_chemical_formula_structural   Mn
_chemical_formula_sum   Mn8
_cell_volume   299.14397765
_cell_formula_units_Z   8
loop_
 _symmetry_equiv_pos_site_id
 _symmetry_equiv_pos_as_xyz
  1  'x, y, z'
loop_
 _atom_site_type_symbol
 _atom_site_label
 _atom_site_symmetry_multiplicity
 _atom_site_fract_x
 _atom_site_fract_y
 _atom_site_fract_z
 _atom_site_occupancy
  Mn  Mn0  1  0.24468800  0.26703600  0.24792000  1.0
  Mn  Mn1  1  0.75516400  0.73293100  0.75202800  1.0
  Mn  Mn2  1  0.99996500  0.49989800  0.99988700  1.0
  Mn  Mn3  1  0.50041400  0.00014100  0.49990400  1.0
  Mn  Mn4  1  0.49973500  0.49983600  0.00001900  1.0
  Mn  Mn5  1  0.00027500  0.00011600  0.50012700  1.0
  Mn  Mn6  1  0.50041100  0.50015300  0.49986100  1.0
  Mn  Mn7  1  0.99981100  0.00004300  0.00002800  1.0
