# generated using pymatgen
data_Mn
_symmetry_space_group_name_H-M   'P 1'
_cell_length_a   5.94136711
_cell_length_b   5.94731121
_cell_length_c   8.52085236
_cell_angle_alpha   89.55408579
_cell_angle_beta   89.68026330
_cell_angle_gamma   88.87693758
_symmetry_Int_Tables_number   1
_chemical_formula_structural   Mn
_chemical_formula_sum   Mn8
_cell_volume   301.01428451
_cell_formula_units_Z   8
loop_
 _symmetry_equiv_pos_site_id
 _symmetry_equiv_pos_as_xyz
  1  'x, y, z'
loop_
 _atom_site_type_symbol
 _atom_site_label
 _atom_site_symmetry_multiplicity
 _atom_site_fract_x
 _atom_site_fract_y
 _atom_site_fract_z
 _atom_site_occupancy
  Mn  Mn0  1  0.50040600  0.50035300  0.00009800  1.0
  Mn  Mn1  1  0.00008400  0.00002500  0.49726700  1.0
  Mn  Mn2  1  0.25645400  0.74587700  0.75272800  1.0
  Mn  Mn3  1  0.74468500  0.25262000  0.25029600  1.0
  Mn  Mn4  1  0.25247800  0.24825100  0.74980800  1.0
  Mn  Mn5  1  0.74629100  0.75001500  0.25009400  1.0
  Mn  Mn6  1  0.50244900  0.49783400  0.49928000  1.0
  Mn  Mn7  1  0.99869500  0.00095400  0.00154100  1.0
