# generated using pymatgen
data_Mn
_symmetry_space_group_name_H-M   'P 1'
_cell_length_a   4.22276082
_cell_length_b   4.22548646
_cell_length_c   5.15516935
_cell_angle_alpha   114.19448312
_cell_angle_beta   114.17693311
_cell_angle_gamma   89.99754584
_symmetry_Int_Tables_number   1
_chemical_formula_structural   Mn
_chemical_formula_sum   Mn2
_cell_volume   74.97261973
_cell_formula_units_Z   2
loop_
 _symmetry_equiv_pos_site_id
 _symmetry_equiv_pos_as_xyz
  1  'x, y, z'
loop_
 _atom_site_type_symbol
 _atom_site_label
 _atom_site_symmetry_multiplicity
 _atom_site_fract_x
 _atom_site_fract_y
 _atom_site_fract_z
 _atom_site_occupancy
  Mn  Mn0  1  0.25152400  0.75229900  0.50099500  1.0
  Mn  Mn1  1  0.00170900  0.00235900  0.00115900  1.0
