# generated using pymatgen
data_Mn
_symmetry_space_group_name_H-M   'P 1'
_cell_length_a   5.97114081
_cell_length_b   5.97135231
_cell_length_c   8.42782810
_cell_angle_alpha   89.69666332
_cell_angle_beta   89.92139458
_cell_angle_gamma   89.45288157
_symmetry_Int_Tables_number   1
_chemical_formula_structural   Mn
_chemical_formula_sum   Mn8
_cell_volume   300.48265692
_cell_formula_units_Z   8
loop_
 _symmetry_equiv_pos_site_id
 _symmetry_equiv_pos_as_xyz
  1  'x, y, z'
loop_
 _atom_site_type_symbol
 _atom_site_label
 _atom_site_symmetry_multiplicity
 _atom_site_fract_x
 _atom_site_fract_y
 _atom_site_fract_z
 _atom_site_occupancy
  Mn  Mn0  1  0.50000000  0.49976900  0.50007000  1.0
  Mn  Mn1  1  0.99992000  0.99954000  0.99992400  1.0
  Mn  Mn2  1  0.00019300  0.00036100  0.49997100  1.0
  Mn  Mn3  1  0.50018000  0.50005900  0.00006600  1.0
  Mn  Mn4  1  0.74864700  0.74828200  0.25142700  1.0
  Mn  Mn5  1  0.25131700  0.25178800  0.74874400  1.0
  Mn  Mn6  1  0.49976700  0.99988300  0.50002500  1.0
  Mn  Mn7  1  0.99996200  0.49992700  0.00004300  1.0
