# generated using pymatgen
data_Mn
_symmetry_space_group_name_H-M   'P 1'
_cell_length_a   5.75779073
_cell_length_b   5.75778948
_cell_length_c   6.18461654
_cell_angle_alpha   117.70771406
_cell_angle_beta   117.70661372
_cell_angle_gamma   90.06646240
_symmetry_Int_Tables_number   1
_chemical_formula_structural   Mn
_chemical_formula_sum   Mn4
_cell_volume   154.40724133
_cell_formula_units_Z   4
loop_
 _symmetry_equiv_pos_site_id
 _symmetry_equiv_pos_as_xyz
  1  'x, y, z'
loop_
 _atom_site_type_symbol
 _atom_site_label
 _atom_site_symmetry_multiplicity
 _atom_site_fract_x
 _atom_site_fract_y
 _atom_site_fract_z
 _atom_site_occupancy
  Mn  Mn0  1  1.00000000  0.50000000  0.50000000  1.0
  Mn  Mn1  1  0.00000000  0.00000000  0.00000000  1.0
  Mn  Mn2  1  0.00000100  0.00000000  0.50000000  1.0
  Mn  Mn3  1  0.49999900  1.00000000  0.00000000  1.0
