# generated using pymatgen
data_Mn
_symmetry_space_group_name_H-M   'P 1'
_cell_length_a   4.16699505
_cell_length_b   4.32566305
_cell_length_c   5.11797516
_cell_angle_alpha   65.02578082
_cell_angle_beta   65.97883604
_cell_angle_gamma   89.99864285
_symmetry_Int_Tables_number   1
_chemical_formula_structural   Mn
_chemical_formula_sum   Mn2
_cell_volume   74.72020991
_cell_formula_units_Z   2
loop_
 _symmetry_equiv_pos_site_id
 _symmetry_equiv_pos_as_xyz
  1  'x, y, z'
loop_
 _atom_site_type_symbol
 _atom_site_label
 _atom_site_symmetry_multiplicity
 _atom_site_fract_x
 _atom_site_fract_y
 _atom_site_fract_z
 _atom_site_occupancy
  Mn  Mn0  1  0.00173250  0.00283900  0.00018350  1.0
  Mn  Mn1  1  0.75290900  0.25035300  0.49776050  1.0
