# generated using pymatgen
data_Mn
_symmetry_space_group_name_H-M   'P 1'
_cell_length_a   2.87324300
_cell_length_b   5.30166500
_cell_length_c   10.08612800
_cell_angle_alpha   90.00000000
_cell_angle_beta   90.00000000
_cell_angle_gamma   90.00000000
_symmetry_Int_Tables_number   1
_chemical_formula_structural   Mn
_chemical_formula_sum   Mn4
_cell_volume   153.64170390
_cell_formula_units_Z   4
loop_
 _symmetry_equiv_pos_site_id
 _symmetry_equiv_pos_as_xyz
  1  'x, y, z'
loop_
 _atom_site_type_symbol
 _atom_site_label
 _atom_site_symmetry_multiplicity
 _atom_site_fract_x
 _atom_site_fract_y
 _atom_site_fract_z
 _atom_site_occupancy
  Mn  Mn0  1  0.75000000  0.60667500  0.63242900  1.0
  Mn  Mn1  1  0.25000000  0.39332500  0.36757100  1.0
  Mn  Mn2  1  0.25000000  0.10667500  0.86757100  1.0
  Mn  Mn3  1  0.75000000  0.89332500  0.13242900  1.0
