# generated using pymatgen
data_Mn
_symmetry_space_group_name_H-M   'P 1'
_cell_length_a   5.94467900
_cell_length_b   5.99346004
_cell_length_c   14.60724654
_cell_angle_alpha   88.88480727
_cell_angle_beta   89.90918413
_cell_angle_gamma   60.43557037
_symmetry_Int_Tables_number   1
_chemical_formula_structural   Mn
_chemical_formula_sum   Mn12
_cell_volume   452.57833643
_cell_formula_units_Z   12
loop_
 _symmetry_equiv_pos_site_id
 _symmetry_equiv_pos_as_xyz
  1  'x, y, z'
loop_
 _atom_site_type_symbol
 _atom_site_label
 _atom_site_symmetry_multiplicity
 _atom_site_fract_x
 _atom_site_fract_y
 _atom_site_fract_z
 _atom_site_occupancy
  Mn  Mn0  1  0.66622300  0.66754200  0.66660800  1.0
  Mn  Mn1  1  0.66311600  0.67737200  0.16824700  1.0
  Mn  Mn2  1  0.99563300  0.00601500  0.00132800  1.0
  Mn  Mn3  1  0.32392800  0.33864600  0.83355500  1.0
  Mn  Mn4  1  0.00921300  0.98994300  0.49962000  1.0
  Mn  Mn5  1  0.33654700  0.33195800  0.33352100  1.0
  Mn  Mn6  1  0.33648500  0.83248600  0.33333333  1.0
  Mn  Mn7  1  0.99388100  0.50695500  0.00037200  1.0
  Mn  Mn8  1  0.83735200  0.83170000  0.33442600  1.0
  Mn  Mn9  1  0.66583700  0.16755200  0.66738500  1.0
  Mn  Mn10  1  0.49480200  0.50593300  0.00021200  1.0
  Mn  Mn11  1  0.16552600  0.16678300  0.66724200  1.0
