# generated using pymatgen
data_Mn
_symmetry_space_group_name_H-M   'P 1'
_cell_length_a   5.91300642
_cell_length_b   5.96499583
_cell_length_c   10.27090356
_cell_angle_alpha   74.35408027
_cell_angle_beta   73.59168501
_cell_angle_gamma   60.86859498
_symmetry_Int_Tables_number   1
_chemical_formula_structural   Mn
_chemical_formula_sum   Mn8
_cell_volume   299.75300547
_cell_formula_units_Z   8
loop_
 _symmetry_equiv_pos_site_id
 _symmetry_equiv_pos_as_xyz
  1  'x, y, z'
loop_
 _atom_site_type_symbol
 _atom_site_label
 _atom_site_symmetry_multiplicity
 _atom_site_fract_x
 _atom_site_fract_y
 _atom_site_fract_z
 _atom_site_occupancy
  Mn  Mn0  1  0.49971700  0.50022600  0.50008100  1.0
  Mn  Mn1  1  0.99992100  0.00007000  0.99998100  1.0
  Mn  Mn2  1  0.74901200  0.73640500  0.75364300  1.0
  Mn  Mn3  1  0.25087300  0.26378100  0.24629100  1.0
  Mn  Mn4  1  0.25055100  0.24698200  0.74892700  1.0
  Mn  Mn5  1  0.74954600  0.75290600  0.25101600  1.0
  Mn  Mn6  1  0.50017700  0.99993200  0.49995400  1.0
  Mn  Mn7  1  0.00001400  0.49995400  0.99997400  1.0
