# generated using pymatgen
data_Nb
_symmetry_space_group_name_H-M   'P 1'
_cell_length_a   5.67056400
_cell_length_b   5.74775100
_cell_length_c   15.76260200
_cell_angle_alpha   90.00000000
_cell_angle_beta   90.00000000
_cell_angle_gamma   90.00000000
_symmetry_Int_Tables_number   1
_chemical_formula_structural   Nb
_chemical_formula_sum   Nb8
_cell_volume   513.75032781
_cell_formula_units_Z   8
loop_
 _symmetry_equiv_pos_site_id
 _symmetry_equiv_pos_as_xyz
  1  'x, y, z'
loop_
 _atom_site_type_symbol
 _atom_site_label
 _atom_site_symmetry_multiplicity
 _atom_site_fract_x
 _atom_site_fract_y
 _atom_site_fract_z
 _atom_site_occupancy
  Nb  Nb0  1  0.24240600  0.21453200  0.12499300  1.0
  Nb  Nb1  1  0.24240600  0.28546800  0.87500700  1.0
  Nb  Nb2  1  0.75759400  0.71453200  0.37500700  1.0
  Nb  Nb3  1  0.75759400  0.78546800  0.62499300  1.0
  Nb  Nb4  1  0.75759400  0.78546800  0.87500700  1.0
  Nb  Nb5  1  0.75759400  0.71453200  0.12499300  1.0
  Nb  Nb6  1  0.24240600  0.28546800  0.62499300  1.0
  Nb  Nb7  1  0.24240600  0.21453200  0.37500700  1.0
