# generated using pymatgen
data_Co
_symmetry_space_group_name_H-M   'P 1'
_cell_length_a   5.41621125
_cell_length_b   5.42599938
_cell_length_c   5.72327175
_cell_angle_alpha   99.01660804
_cell_angle_beta   99.52999307
_cell_angle_gamma   119.75764504
_symmetry_Int_Tables_number   1
_chemical_formula_structural   Co
_chemical_formula_sum   Co2
_cell_volume   138.28299552
_cell_formula_units_Z   2
loop_
 _symmetry_equiv_pos_site_id
 _symmetry_equiv_pos_as_xyz
  1  'x, y, z'
loop_
 _atom_site_type_symbol
 _atom_site_label
 _atom_site_symmetry_multiplicity
 _atom_site_fract_x
 _atom_site_fract_y
 _atom_site_fract_z
 _atom_site_occupancy
  Co  Co0  1  0.33312900  0.66508100  0.00016000  1.0
  Co  Co1  1  0.66643600  0.33383700  0.99994400  1.0
