# generated using pymatgen
data_CePd
_symmetry_space_group_name_H-M   'P 1'
_cell_length_a   4.24141300
_cell_length_b   7.17328100
_cell_length_c   28.69365500
_cell_angle_alpha   90.00000000
_cell_angle_beta   90.00000000
_cell_angle_gamma   90.00000000
_symmetry_Int_Tables_number   1
_chemical_formula_structural   CePd
_chemical_formula_sum   'Ce14 Pd14'
_cell_volume   873.00007145
_cell_formula_units_Z   14
loop_
 _symmetry_equiv_pos_site_id
 _symmetry_equiv_pos_as_xyz
  1  'x, y, z'
loop_
 _atom_site_type_symbol
 _atom_site_label
 _atom_site_symmetry_multiplicity
 _atom_site_fract_x
 _atom_site_fract_y
 _atom_site_fract_z
 _atom_site_occupancy
  Ce  Ce0  1  0.00000000  0.48782600  0.09137900  1.0
  Ce  Ce1  1  0.00000000  0.85721000  0.00000000  1.0
  Ce  Ce2  1  0.50000000  0.00655300  0.62314400  1.0
  Ce  Ce3  1  0.00000000  0.99344700  0.12314400  1.0
  Ce  Ce4  1  0.00000000  0.48782600  0.90862100  1.0
  Ce  Ce5  1  0.50000000  0.14279000  0.50000000  1.0
  Ce  Ce6  1  0.00000000  0.99344700  0.87685600  1.0
  Ce  Ce7  1  0.50000000  0.64173000  0.71704800  1.0
  Ce  Ce8  1  0.50000000  0.51217400  0.59137900  1.0
  Ce  Ce9  1  0.50000000  0.51217400  0.40862100  1.0
  Ce  Ce10  1  0.00000000  0.35827000  0.78295200  1.0
  Ce  Ce11  1  0.50000000  0.64173000  0.28295200  1.0
  Ce  Ce12  1  0.00000000  0.35827000  0.21704800  1.0
  Ce  Ce13  1  0.50000000  0.00655300  0.37685600  1.0
  Pd  Pd14  1  0.00000000  0.79136900  0.79086400  1.0
  Pd  Pd15  1  0.50000000  0.27590500  0.85327800  1.0
  Pd  Pd16  1  0.00000000  0.72409500  0.64672200  1.0
  Pd  Pd17  1  0.50000000  0.20863100  0.29086400  1.0
  Pd  Pd18  1  0.00000000  0.22124500  0.57232300  1.0
  Pd  Pd19  1  0.50000000  0.77875500  0.07232300  1.0
  Pd  Pd20  1  0.00000000  0.22124500  0.42767700  1.0
  Pd  Pd21  1  0.50000000  0.77875500  0.92767700  1.0
  Pd  Pd22  1  0.50000000  0.20863100  0.70913600  1.0
  Pd  Pd23  1  0.50000000  0.27590500  0.14672200  1.0
  Pd  Pd24  1  0.00000000  0.79136900  0.20913600  1.0
  Pd  Pd25  1  0.00000000  0.72409500  0.35327800  1.0
  Pd  Pd26  1  0.00000000  0.27851400  0.00000000  1.0
  Pd  Pd27  1  0.50000000  0.72148600  0.50000000  1.0
