# generated using pymatgen
data_Ru
_symmetry_space_group_name_H-M   'P 1'
_cell_length_a   5.79852400
_cell_length_b   5.79852392
_cell_length_c   14.25288500
_cell_angle_alpha   90.00000000
_cell_angle_beta   90.00000000
_cell_angle_gamma   120.00000044
_symmetry_Int_Tables_number   1
_chemical_formula_structural   Ru
_chemical_formula_sum   Ru6
_cell_volume   415.01932779
_cell_formula_units_Z   6
loop_
 _symmetry_equiv_pos_site_id
 _symmetry_equiv_pos_as_xyz
  1  'x, y, z'
loop_
 _atom_site_type_symbol
 _atom_site_label
 _atom_site_symmetry_multiplicity
 _atom_site_fract_x
 _atom_site_fract_y
 _atom_site_fract_z
 _atom_site_occupancy
  Ru  Ru0  1  0.66666667  0.33333333  0.16059100  1.0
  Ru  Ru1  1  0.33333333  0.66666667  0.66059100  1.0
  Ru  Ru2  1  0.33333333  0.66666667  0.83940900  1.0
  Ru  Ru3  1  0.66666667  0.33333333  0.33940900  1.0
  Ru  Ru4  1  0.00000000  0.00000000  0.50000000  1.0
  Ru  Ru5  1  0.00000000  0.00000000  0.00000000  1.0
