# generated using pymatgen
data_Ru
_symmetry_space_group_name_H-M   'P 1'
_cell_length_a   5.83152227
_cell_length_b   5.83152227
_cell_length_c   8.04637643
_cell_angle_alpha   68.75420804
_cell_angle_beta   68.75420804
_cell_angle_gamma   59.99999688
_symmetry_Int_Tables_number   1
_chemical_formula_structural   Ru
_chemical_formula_sum   Ru3
_cell_volume   215.22868713
_cell_formula_units_Z   3
loop_
 _symmetry_equiv_pos_site_id
 _symmetry_equiv_pos_as_xyz
  1  'x, y, z'
loop_
 _atom_site_type_symbol
 _atom_site_label
 _atom_site_symmetry_multiplicity
 _atom_site_fract_x
 _atom_site_fract_y
 _atom_site_fract_z
 _atom_site_occupancy
  Ru  Ru0  1  0.61708400  0.61708400  0.14874800  1.0
  Ru  Ru1  1  0.38291600  0.38291600  0.85125200  1.0
  Ru  Ru2  1  0.50000000  0.50000000  0.50000000  1.0
