# generated using pymatgen
data_Fe
_symmetry_space_group_name_H-M   'P 1'
_cell_length_a   5.61290900
_cell_length_b   11.59251900
_cell_length_c   15.66460600
_cell_angle_alpha   90.00000000
_cell_angle_beta   90.00000000
_cell_angle_gamma   90.00000000
_symmetry_Int_Tables_number   1
_chemical_formula_structural   Fe
_chemical_formula_sum   Fe16
_cell_volume   1019.26073328
_cell_formula_units_Z   16
loop_
 _symmetry_equiv_pos_site_id
 _symmetry_equiv_pos_as_xyz
  1  'x, y, z'
loop_
 _atom_site_type_symbol
 _atom_site_label
 _atom_site_symmetry_multiplicity
 _atom_site_fract_x
 _atom_site_fract_y
 _atom_site_fract_z
 _atom_site_occupancy
  Fe  Fe0  1  0.00000000  0.50000000  0.50000000  1.0
  Fe  Fe1  1  0.00000000  0.50000000  0.00000000  1.0
  Fe  Fe2  1  0.00000000  0.00000000  0.50000000  1.0
  Fe  Fe3  1  0.00000000  0.00000000  0.00000000  1.0
  Fe  Fe4  1  0.49919400  0.25000000  0.00000000  1.0
  Fe  Fe5  1  0.50080600  0.75000000  0.50000000  1.0
  Fe  Fe6  1  0.50080600  0.75000000  0.00000000  1.0
  Fe  Fe7  1  0.49919400  0.25000000  0.50000000  1.0
  Fe  Fe8  1  0.04296200  0.53457800  0.75000000  1.0
  Fe  Fe9  1  0.95703800  0.46542200  0.25000000  1.0
  Fe  Fe10  1  0.04296200  0.96542200  0.25000000  1.0
  Fe  Fe11  1  0.95703800  0.03457800  0.75000000  1.0
  Fe  Fe12  1  0.54405700  0.78423600  0.25000000  1.0
  Fe  Fe13  1  0.45594300  0.21576400  0.75000000  1.0
  Fe  Fe14  1  0.54405700  0.71576400  0.75000000  1.0
  Fe  Fe15  1  0.45594300  0.28423600  0.25000000  1.0
