# generated using pymatgen
data_Pb
_symmetry_space_group_name_H-M   'P 1'
_cell_length_a   5.45170000
_cell_length_b   5.79079000
_cell_length_c   5.95512000
_cell_angle_alpha   90.00000000
_cell_angle_beta   90.00000000
_cell_angle_gamma   90.00000000
_symmetry_Int_Tables_number   1
_chemical_formula_structural   Pb
_chemical_formula_sum   Pb4
_cell_volume   188.00105317
_cell_formula_units_Z   4
loop_
 _symmetry_equiv_pos_site_id
 _symmetry_equiv_pos_as_xyz
  1  'x, y, z'
loop_
 _atom_site_type_symbol
 _atom_site_label
 _atom_site_symmetry_multiplicity
 _atom_site_fract_x
 _atom_site_fract_y
 _atom_site_fract_z
 _atom_site_occupancy
  Pb  Pb0  1  0.75248400  0.47408100  0.27862700  1.0
  Pb  Pb1  1  0.75248400  0.97408100  0.72137300  1.0
  Pb  Pb2  1  0.25248400  0.52591900  0.72137300  1.0
  Pb  Pb3  1  0.25248400  0.02591900  0.27862700  1.0
