# generated using pymatgen
data_Pb
_symmetry_space_group_name_H-M   'P 1'
_cell_length_a   5.40601700
_cell_length_b   5.74551400
_cell_length_c   45.93145500
_cell_angle_alpha   90.00000000
_cell_angle_beta   90.00000000
_cell_angle_gamma   90.00000000
_symmetry_Int_Tables_number   1
_chemical_formula_structural   Pb
_chemical_formula_sum   Pb32
_cell_volume   1426.64690101
_cell_formula_units_Z   32
loop_
 _symmetry_equiv_pos_site_id
 _symmetry_equiv_pos_as_xyz
  1  'x, y, z'
loop_
 _atom_site_type_symbol
 _atom_site_label
 _atom_site_symmetry_multiplicity
 _atom_site_fract_x
 _atom_site_fract_y
 _atom_site_fract_z
 _atom_site_occupancy
  Pb  Pb0  1  0.22066000  0.76657400  0.12502600  1.0
  Pb  Pb1  1  0.22056600  0.22853600  0.93750800  1.0
  Pb  Pb2  1  0.77934000  0.23342600  0.87497400  1.0
  Pb  Pb3  1  0.77944800  0.74483800  0.18749300  1.0
  Pb  Pb4  1  0.77886700  0.22876500  0.25000000  1.0
  Pb  Pb5  1  0.77943400  0.72853600  0.56249200  1.0
  Pb  Pb6  1  0.77943400  0.77146400  0.06249200  1.0
  Pb  Pb7  1  0.22055200  0.25516200  0.81250700  1.0
  Pb  Pb8  1  0.77886700  0.27123500  0.75000000  1.0
  Pb  Pb9  1  0.22113300  0.72876500  0.25000000  1.0
  Pb  Pb10  1  0.22113300  0.77123500  0.75000000  1.0
  Pb  Pb11  1  0.77944800  0.75516200  0.81250700  1.0
  Pb  Pb12  1  0.22056600  0.27146400  0.43750800  1.0
  Pb  Pb13  1  0.77934000  0.26657400  0.37497400  1.0
  Pb  Pb14  1  0.22066000  0.73342600  0.87497400  1.0
  Pb  Pb15  1  0.22066000  0.76657400  0.37497400  1.0
  Pb  Pb16  1  0.77967800  0.25000000  0.50000000  1.0
  Pb  Pb17  1  0.22066000  0.73342600  0.62502600  1.0
  Pb  Pb18  1  0.22032200  0.75000000  0.00000000  1.0
  Pb  Pb19  1  0.22032200  0.75000000  0.50000000  1.0
  Pb  Pb20  1  0.22055200  0.25516200  0.68749300  1.0
  Pb  Pb21  1  0.77967800  0.25000000  0.00000000  1.0
  Pb  Pb22  1  0.77943400  0.72853600  0.93750800  1.0
  Pb  Pb23  1  0.77943400  0.77146400  0.43750800  1.0
  Pb  Pb24  1  0.77944800  0.74483800  0.31250700  1.0
  Pb  Pb25  1  0.77934000  0.23342600  0.62502600  1.0
  Pb  Pb26  1  0.77934000  0.26657400  0.12502600  1.0
  Pb  Pb27  1  0.22056600  0.22853600  0.56249200  1.0
  Pb  Pb28  1  0.22055200  0.24483800  0.18749300  1.0
  Pb  Pb29  1  0.22056600  0.27146400  0.06249200  1.0
  Pb  Pb30  1  0.77944800  0.75516200  0.68749300  1.0
  Pb  Pb31  1  0.22055200  0.24483800  0.31250700  1.0
