# generated using pymatgen
data_Ti
_symmetry_space_group_name_H-M   'P 1'
_cell_length_a   5.45390100
_cell_length_b   5.54042800
_cell_length_c   16.89268104
_cell_angle_alpha   99.15696421
_cell_angle_beta   90.00000000
_cell_angle_gamma   90.00000000
_symmetry_Int_Tables_number   1
_chemical_formula_structural   Ti
_chemical_formula_sum   Ti6
_cell_volume   503.94015236
_cell_formula_units_Z   6
loop_
 _symmetry_equiv_pos_site_id
 _symmetry_equiv_pos_as_xyz
  1  'x, y, z'
loop_
 _atom_site_type_symbol
 _atom_site_label
 _atom_site_symmetry_multiplicity
 _atom_site_fract_x
 _atom_site_fract_y
 _atom_site_fract_z
 _atom_site_occupancy
  Ti  Ti0  1  0.24866600  0.95450200  0.99758600  1.0
  Ti  Ti1  1  0.75133400  0.45450200  0.99758600  1.0
  Ti  Ti2  1  0.24799700  0.82163900  0.74217700  1.0
  Ti  Ti3  1  0.75200300  0.32163900  0.74217700  1.0
  Ti  Ti4  1  0.25161400  0.07112800  0.25471200  1.0
  Ti  Ti5  1  0.74838600  0.57112800  0.25471200  1.0
