# generated using pymatgen
data_Ti
_symmetry_space_group_name_H-M   'P 1'
_cell_length_a   5.43020600
_cell_length_b   5.49599000
_cell_length_c   17.00772830
_cell_angle_alpha   89.91640359
_cell_angle_beta   99.18596449
_cell_angle_gamma   90.00000000
_symmetry_Int_Tables_number   1
_chemical_formula_structural   Ti
_chemical_formula_sum   Ti6
_cell_volume   501.07461214
_cell_formula_units_Z   6
loop_
 _symmetry_equiv_pos_site_id
 _symmetry_equiv_pos_as_xyz
  1  'x, y, z'
loop_
 _atom_site_type_symbol
 _atom_site_label
 _atom_site_symmetry_multiplicity
 _atom_site_fract_x
 _atom_site_fract_y
 _atom_site_fract_z
 _atom_site_occupancy
  Ti  Ti0  1  0.00268700  0.48078900  0.49612300  1.0
  Ti  Ti1  1  0.87497600  0.47147400  0.24332900  1.0
  Ti  Ti2  1  0.62732100  0.97610600  0.75841600  1.0
  Ti  Ti3  1  0.13109500  0.47610600  0.75841600  1.0
  Ti  Ti4  1  0.36835300  0.97147400  0.24332900  1.0
  Ti  Ti5  1  0.49343600  0.98078900  0.49612300  1.0
