# generated using pymatgen
data_Ti
_symmetry_space_group_name_H-M   'P 1'
_cell_length_a   3.86938685
_cell_length_b   3.86938685
_cell_length_c   33.50798900
_cell_angle_alpha   90.00000000
_cell_angle_beta   90.00000000
_cell_angle_gamma   90.91477134
_symmetry_Int_Tables_number   1
_chemical_formula_structural   Ti
_chemical_formula_sum   Ti6
_cell_volume   501.62285138
_cell_formula_units_Z   6
loop_
 _symmetry_equiv_pos_site_id
 _symmetry_equiv_pos_as_xyz
  1  'x, y, z'
loop_
 _atom_site_type_symbol
 _atom_site_label
 _atom_site_symmetry_multiplicity
 _atom_site_fract_x
 _atom_site_fract_y
 _atom_site_fract_z
 _atom_site_occupancy
  Ti  Ti0  1  0.98961600  0.98961600  0.50000000  1.0
  Ti  Ti1  1  0.48902800  0.51493100  0.87100300  1.0
  Ti  Ti2  1  0.48961600  0.48961600  0.00000000  1.0
  Ti  Ti3  1  0.98902800  0.01493100  0.62899700  1.0
  Ti  Ti4  1  0.51493100  0.48902800  0.12899700  1.0
  Ti  Ti5  1  0.01493100  0.98902800  0.37100300  1.0
