# generated using pymatgen
data_Ti
_symmetry_space_group_name_H-M   'P 1'
_cell_length_a   3.86469438
_cell_length_b   3.86469438
_cell_length_c   16.97887473
_cell_angle_alpha   84.22256089
_cell_angle_beta   84.22256089
_cell_angle_gamma   88.83345503
_symmetry_Int_Tables_number   1
_chemical_formula_structural   Ti
_chemical_formula_sum   Ti3
_cell_volume   251.01098912
_cell_formula_units_Z   3
loop_
 _symmetry_equiv_pos_site_id
 _symmetry_equiv_pos_as_xyz
  1  'x, y, z'
loop_
 _atom_site_type_symbol
 _atom_site_label
 _atom_site_symmetry_multiplicity
 _atom_site_fract_x
 _atom_site_fract_y
 _atom_site_fract_z
 _atom_site_occupancy
  Ti  Ti0  1  0.63527800  0.63527800  0.74296500  1.0
  Ti  Ti1  1  0.36472200  0.36472200  0.25703500  1.0
  Ti  Ti2  1  0.50000000  0.50000000  1.00000000  1.0
