# generated using pymatgen
data_TiNi
_symmetry_space_group_name_H-M   'P 1'
_cell_length_a   5.07666894
_cell_length_b   5.49939771
_cell_length_c   25.24768956
_cell_angle_alpha   93.62357488
_cell_angle_beta   90.09094728
_cell_angle_gamma   117.41462790
_symmetry_Int_Tables_number   1
_chemical_formula_structural   TiNi
_chemical_formula_sum   'Ti12 Ni12'
_cell_volume   624.09541233
_cell_formula_units_Z   12
loop_
 _symmetry_equiv_pos_site_id
 _symmetry_equiv_pos_as_xyz
  1  'x, y, z'
loop_
 _atom_site_type_symbol
 _atom_site_label
 _atom_site_symmetry_multiplicity
 _atom_site_fract_x
 _atom_site_fract_y
 _atom_site_fract_z
 _atom_site_occupancy
  Ti  Ti0  1  0.46814700  0.94122800  0.19055400  1.0
  Ti  Ti1  1  0.14070000  0.28260700  0.35627500  1.0
  Ti  Ti2  1  0.84701600  0.70325700  0.13974800  1.0
  Ti  Ti3  1  0.80808000  0.61653800  0.52298600  1.0
  Ti  Ti4  1  0.52133300  0.04519600  0.30857200  1.0
  Ti  Ti5  1  0.47394800  0.94558000  0.68955300  1.0
  Ti  Ti6  1  0.18923500  0.37944600  0.47518100  1.0
  Ti  Ti7  1  0.14077400  0.28465300  0.85804800  1.0
  Ti  Ti8  1  0.85570300  0.71118000  0.64202800  1.0
  Ti  Ti9  1  0.51541500  0.04436700  0.80804700  1.0
  Ti  Ti10  1  0.47196800  0.93357900  0.94556100  1.0
  Ti  Ti11  1  0.21370500  0.39135800  0.98110000  1.0
  Ni  Ni12  1  0.80206100  0.59932200  0.02623800  1.0
  Ni  Ni13  1  0.53758900  0.05737200  0.06189000  1.0
  Ni  Ni14  1  0.19484300  0.39457100  0.22455200  1.0
  Ni  Ni15  1  0.12256600  0.24946600  0.11083100  1.0
  Ni  Ni16  1  0.86577200  0.73246800  0.39091100  1.0
  Ni  Ni17  1  0.79833100  0.59690300  0.27386800  1.0
  Ni  Ni18  1  0.53307200  0.06627900  0.55778200  1.0
  Ni  Ni19  1  0.46621800  0.93219200  0.44118900  1.0
  Ni  Ni20  1  0.19674400  0.39636500  0.72524300  1.0
  Ni  Ni21  1  0.13267400  0.26460100  0.60793100  1.0
  Ni  Ni22  1  0.86103400  0.72775000  0.89149100  1.0
  Ni  Ni23  1  0.79876100  0.59647600  0.77497900  1.0
