# generated using pymatgen
data_TiNi
_symmetry_space_group_name_H-M   'P 1'
_cell_length_a   5.06260200
_cell_length_b   5.48929790
_cell_length_c   21.01008739
_cell_angle_alpha   85.70399702
_cell_angle_beta   89.87375336
_cell_angle_gamma   62.63803455
_symmetry_Int_Tables_number   1
_chemical_formula_structural   TiNi
_chemical_formula_sum   'Ti10 Ni10'
_cell_volume   516.75037341
_cell_formula_units_Z   10
loop_
 _symmetry_equiv_pos_site_id
 _symmetry_equiv_pos_as_xyz
  1  'x, y, z'
loop_
 _atom_site_type_symbol
 _atom_site_label
 _atom_site_symmetry_multiplicity
 _atom_site_fract_x
 _atom_site_fract_y
 _atom_site_fract_z
 _atom_site_occupancy
  Ti  Ti0  1  0.39395600  0.20671000  0.77121400  1.0
  Ti  Ti1  1  0.99939400  0.00145500  0.57262600  1.0
  Ti  Ti2  1  0.79299700  0.40362800  0.83210900  1.0
  Ti  Ti3  1  0.59895300  0.80270700  0.37288300  1.0
  Ti  Ti4  1  0.39997600  0.19865400  0.62976500  1.0
  Ti  Ti5  1  0.19713400  0.60844800  0.17111000  1.0
  Ti  Ti6  1  0.99965900  0.99987900  0.43011600  1.0
  Ti  Ti7  1  0.59567200  0.80260700  0.23016000  1.0
  Ti  Ti8  1  0.48662500  0.04295000  0.06450300  1.0
  Ti  Ti9  1  0.20545500  0.61342700  0.02379600  1.0
  Ni  Ni10  1  0.78516600  0.42656000  0.96805300  1.0
  Ni  Ni11  1  0.50984700  0.99494300  0.92555300  1.0
  Ni  Ni12  1  0.10783300  0.78058800  0.73033600  1.0
  Ni  Ni13  1  0.07945400  0.83355700  0.86688500  1.0
  Ni  Ni14  1  0.71001600  0.57982200  0.53097400  1.0
  Ni  Ni15  1  0.69216500  0.61743000  0.67149200  1.0
  Ni  Ni16  1  0.30851600  0.38160300  0.33031600  1.0
  Ni  Ni17  1  0.29092900  0.41897500  0.47092900  1.0
  Ni  Ni18  1  0.90292800  0.19180300  0.13033700  1.0
  Ni  Ni19  1  0.89099400  0.22116400  0.27080000  1.0
