# generated using pymatgen
data_Co
_symmetry_space_group_name_H-M   'P 1'
_cell_length_a   5.76926200
_cell_length_b   5.78268933
_cell_length_c   14.15898761
_cell_angle_alpha   89.65203420
_cell_angle_beta   90.00000000
_cell_angle_gamma   119.92321898
_symmetry_Int_Tables_number   1
_chemical_formula_structural   Co
_chemical_formula_sum   Co6
_cell_volume   409.39052451
_cell_formula_units_Z   6
loop_
 _symmetry_equiv_pos_site_id
 _symmetry_equiv_pos_as_xyz
  1  'x, y, z'
loop_
 _atom_site_type_symbol
 _atom_site_label
 _atom_site_symmetry_multiplicity
 _atom_site_fract_x
 _atom_site_fract_y
 _atom_site_fract_z
 _atom_site_occupancy
  Co  Co0  1  0.00110800  0.00221600  0.00234000  1.0
  Co  Co1  1  0.33311900  0.66623800  0.66659800  1.0
  Co  Co2  1  0.66666667  0.33333333  0.96049700  1.0
  Co  Co3  1  0.66648400  0.33296800  0.58490800  1.0
  Co  Co4  1  0.66644000  0.33288000  0.33402000  1.0
  Co  Co5  1  0.99978800  0.99957600  0.24723000  1.0
