# generated using pymatgen
data_Co
_symmetry_space_group_name_H-M   'P 1'
_cell_length_a   5.78149888
_cell_length_b   5.78149888
_cell_length_c   23.89953377
_cell_angle_alpha   83.05282834
_cell_angle_beta   83.05282834
_cell_angle_gamma   59.99998996
_symmetry_Int_Tables_number   1
_chemical_formula_structural   Co
_chemical_formula_sum   Co10
_cell_volume   685.05156021
_cell_formula_units_Z   10
loop_
 _symmetry_equiv_pos_site_id
 _symmetry_equiv_pos_as_xyz
  1  'x, y, z'
loop_
 _atom_site_type_symbol
 _atom_site_label
 _atom_site_symmetry_multiplicity
 _atom_site_fract_x
 _atom_site_fract_y
 _atom_site_fract_z
 _atom_site_occupancy
  Co  Co0  1  0.00076800  0.00076800  0.99769600  1.0
  Co  Co1  1  0.32560100  0.32560100  0.02319700  1.0
  Co  Co2  1  0.60053800  0.60053800  0.19838600  1.0
  Co  Co3  1  0.92521600  0.92521600  0.22435200  1.0
  Co  Co4  1  0.19998800  0.19998800  0.40003600  1.0
  Co  Co5  1  0.85037100  0.85037100  0.44888700  1.0
  Co  Co6  1  0.44994700  0.44994700  0.65015900  1.0
  Co  Co7  1  0.79977700  0.79977700  0.60066900  1.0
  Co  Co8  1  0.04920300  0.04920300  0.85239100  1.0
  Co  Co9  1  0.40019300  0.40019300  0.79942100  1.0
