# generated using pymatgen
data_Co
_symmetry_space_group_name_H-M   'P 1'
_cell_length_a   5.78422443
_cell_length_b   5.78422443
_cell_length_c   19.19913024
_cell_angle_alpha   81.33611983
_cell_angle_beta   81.33611983
_cell_angle_gamma   59.99999508
_symmetry_Int_Tables_number   1
_chemical_formula_structural   Co
_chemical_formula_sum   Co8
_cell_volume   547.81141400
_cell_formula_units_Z   8
loop_
 _symmetry_equiv_pos_site_id
 _symmetry_equiv_pos_as_xyz
  1  'x, y, z'
loop_
 _atom_site_type_symbol
 _atom_site_label
 _atom_site_symmetry_multiplicity
 _atom_site_fract_x
 _atom_site_fract_y
 _atom_site_fract_z
 _atom_site_occupancy
  Co  Co0  1  0.99925500  0.99925500  0.00223500  1.0
  Co  Co1  1  0.43702600  0.43702600  0.68892200  1.0
  Co  Co2  1  0.34310500  0.34310500  0.97068500  1.0
  Co  Co3  1  0.74996100  0.74996100  0.75011700  1.0
  Co  Co4  1  0.18759900  0.18759900  0.43720300  1.0
  Co  Co5  1  0.93837800  0.93837800  0.18486600  1.0
  Co  Co6  1  0.50017400  0.50017400  0.49947800  1.0
  Co  Co7  1  0.24972700  0.24972700  0.25081900  1.0
