# generated using pymatgen
data_Co
_symmetry_space_group_name_H-M   'P 1'
_cell_length_a   5.78364800
_cell_length_b   5.78364792
_cell_length_c   14.19663500
_cell_angle_alpha   90.00000000
_cell_angle_beta   90.00000000
_cell_angle_gamma   120.00000047
_symmetry_Int_Tables_number   1
_chemical_formula_structural   Co
_chemical_formula_sum   Co6
_cell_volume   411.26310228
_cell_formula_units_Z   6
loop_
 _symmetry_equiv_pos_site_id
 _symmetry_equiv_pos_as_xyz
  1  'x, y, z'
loop_
 _atom_site_type_symbol
 _atom_site_label
 _atom_site_symmetry_multiplicity
 _atom_site_fract_x
 _atom_site_fract_y
 _atom_site_fract_z
 _atom_site_occupancy
  Co  Co0  1  0.00000000  0.00000000  0.99711200  1.0
  Co  Co1  1  0.33333333  0.66666667  0.33379500  1.0
  Co  Co2  1  0.66666667  0.33333333  0.03947900  1.0
  Co  Co3  1  0.66666667  0.33333333  0.41534300  1.0
  Co  Co4  1  0.66666667  0.33333333  0.66558200  1.0
  Co  Co5  1  0.00000000  0.00000000  0.75307200  1.0
