# generated using pymatgen
data_Co
_symmetry_space_group_name_H-M   'P 1'
_cell_length_a   5.77864197
_cell_length_b   5.77864197
_cell_length_c   19.21729366
_cell_angle_alpha   81.35278401
_cell_angle_beta   81.35278401
_cell_angle_gamma   60.00000032
_symmetry_Int_Tables_number   1
_chemical_formula_structural   Co
_chemical_formula_sum   Co8
_cell_volume   547.30436727
_cell_formula_units_Z   8
loop_
 _symmetry_equiv_pos_site_id
 _symmetry_equiv_pos_as_xyz
  1  'x, y, z'
loop_
 _atom_site_type_symbol
 _atom_site_label
 _atom_site_symmetry_multiplicity
 _atom_site_fract_x
 _atom_site_fract_y
 _atom_site_fract_z
 _atom_site_occupancy
  Co  Co0  1  0.00084900  0.00084900  0.99745300  1.0
  Co  Co1  1  0.65702000  0.65702000  0.02894000  1.0
  Co  Co2  1  0.25052700  0.25052700  0.24841900  1.0
  Co  Co3  1  0.90649400  0.90649400  0.28051800  1.0
  Co  Co4  1  0.81284600  0.81284600  0.56146200  1.0
  Co  Co5  1  0.49984300  0.49984300  0.50047100  1.0
  Co  Co6  1  0.06162400  0.06162400  0.81512800  1.0
  Co  Co7  1  0.75021800  0.75021800  0.74934600  1.0
