# generated using pymatgen
data_Fe
_symmetry_space_group_name_H-M   'P 1'
_cell_length_a   5.37098506
_cell_length_b   5.50277701
_cell_length_c   7.66960104
_cell_angle_alpha   89.99956389
_cell_angle_beta   91.17098862
_cell_angle_gamma   89.99501719
_symmetry_Int_Tables_number   1
_chemical_formula_structural   Fe
_chemical_formula_sum   Fe4
_cell_volume   226.63027319
_cell_formula_units_Z   4
loop_
 _symmetry_equiv_pos_site_id
 _symmetry_equiv_pos_as_xyz
  1  'x, y, z'
loop_
 _atom_site_type_symbol
 _atom_site_label
 _atom_site_symmetry_multiplicity
 _atom_site_fract_x
 _atom_site_fract_y
 _atom_site_fract_z
 _atom_site_occupancy
  Fe  Fe0  1  0.99999800  0.49999500  0.00001100  1.0
  Fe  Fe1  1  0.00001500  0.50000000  0.50000500  1.0
  Fe  Fe2  1  0.49998900  0.99997900  0.50000600  1.0
  Fe  Fe3  1  0.50001200  0.00000900  0.99999900  1.0
