# generated using pymatgen
data_Nd3Nb
_symmetry_space_group_name_H-M   'P 1'
_cell_length_a   7.68347000
_cell_length_b   7.77407800
_cell_length_c   10.98873700
_cell_angle_alpha   90.00000000
_cell_angle_beta   90.00000000
_cell_angle_gamma   90.00000000
_symmetry_Int_Tables_number   1
_chemical_formula_structural   Nd3Nb
_chemical_formula_sum   'Nd12 Nb4'
_cell_volume   656.37808566
_cell_formula_units_Z   4
loop_
 _symmetry_equiv_pos_site_id
 _symmetry_equiv_pos_as_xyz
  1  'x, y, z'
loop_
 _atom_site_type_symbol
 _atom_site_label
 _atom_site_symmetry_multiplicity
 _atom_site_fract_x
 _atom_site_fract_y
 _atom_site_fract_z
 _atom_site_occupancy
  Nd  Nd0  1  0.48688600  0.29544600  0.25000000  1.0
  Nd  Nd1  1  0.74938800  0.54223200  0.47625400  1.0
  Nd  Nd2  1  0.25061200  0.45776800  0.52374600  1.0
  Nd  Nd3  1  0.98688600  0.20455400  0.25000000  1.0
  Nd  Nd4  1  0.75061200  0.04223200  0.97625400  1.0
  Nd  Nd5  1  0.75061200  0.04223200  0.52374600  1.0
  Nd  Nd6  1  0.51311400  0.70455400  0.75000000  1.0
  Nd  Nd7  1  0.25061200  0.45776800  0.97625400  1.0
  Nd  Nd8  1  0.01311400  0.79544600  0.75000000  1.0
  Nd  Nd9  1  0.24938800  0.95776800  0.02374600  1.0
  Nd  Nd10  1  0.74938800  0.54223200  0.02374600  1.0
  Nd  Nd11  1  0.24938800  0.95776800  0.47625400  1.0
  Nb  Nb12  1  0.49508600  0.75369800  0.25000000  1.0
  Nb  Nb13  1  0.99508600  0.74630200  0.25000000  1.0
  Nb  Nb14  1  0.00491400  0.25369800  0.75000000  1.0
  Nb  Nb15  1  0.50491400  0.24630200  0.75000000  1.0
