# generated using pymatgen
data_Co
_symmetry_space_group_name_H-M   'P 1'
_cell_length_a   5.43796000
_cell_length_b   5.53068800
_cell_length_c   9.01834327
_cell_angle_alpha   107.85658527
_cell_angle_beta   107.54738243
_cell_angle_gamma   90.00000001
_symmetry_Int_Tables_number   1
_chemical_formula_structural   Co
_chemical_formula_sum   Co4
_cell_volume   244.87301736
_cell_formula_units_Z   4
loop_
 _symmetry_equiv_pos_site_id
 _symmetry_equiv_pos_as_xyz
  1  'x, y, z'
loop_
 _atom_site_type_symbol
 _atom_site_label
 _atom_site_symmetry_multiplicity
 _atom_site_fract_x
 _atom_site_fract_y
 _atom_site_fract_z
 _atom_site_occupancy
  Co  Co0  1  0.01009300  0.50000000  0.00000000  1.0
  Co  Co1  1  0.51009300  1.00000000  1.00000000  1.0
  Co  Co2  1  0.72676000  0.31350100  0.50000000  1.0
  Co  Co3  1  0.22676000  0.68649900  0.50000000  1.0
