# generated using pymatgen
data_Co
_symmetry_space_group_name_H-M   'P 1'
_cell_length_a   5.61614700
_cell_length_b   5.64496100
_cell_length_c   5.66487719
_cell_angle_alpha   117.73189217
_cell_angle_beta   119.26227321
_cell_angle_gamma   91.57069048
_symmetry_Int_Tables_number   1
_chemical_formula_structural   Co
_chemical_formula_sum   Co2
_cell_volume   130.90723300
_cell_formula_units_Z   2
loop_
 _symmetry_equiv_pos_site_id
 _symmetry_equiv_pos_as_xyz
  1  'x, y, z'
loop_
 _atom_site_type_symbol
 _atom_site_label
 _atom_site_symmetry_multiplicity
 _atom_site_fract_x
 _atom_site_fract_y
 _atom_site_fract_z
 _atom_site_occupancy
  Co  Co0  1  0.09805100  0.08912800  0.07097000  1.0
  Co  Co1  1  0.62901000  0.68852800  0.16204900  1.0
