# generated using pymatgen
data_Co
_symmetry_space_group_name_H-M   'P 1'
_cell_length_a   5.43022300
_cell_length_b   5.55978839
_cell_length_c   8.94352183
_cell_angle_alpha   107.49651079
_cell_angle_beta   107.20983573
_cell_angle_gamma   91.47386402
_symmetry_Int_Tables_number   1
_chemical_formula_structural   Co
_chemical_formula_sum   Co4
_cell_volume   244.03447770
_cell_formula_units_Z   4
loop_
 _symmetry_equiv_pos_site_id
 _symmetry_equiv_pos_as_xyz
  1  'x, y, z'
loop_
 _atom_site_type_symbol
 _atom_site_label
 _atom_site_symmetry_multiplicity
 _atom_site_fract_x
 _atom_site_fract_y
 _atom_site_fract_z
 _atom_site_occupancy
  Co  Co0  1  0.27631300  0.18432800  0.49796900  1.0
  Co  Co1  1  0.98849000  0.00012500  0.99979600  1.0
  Co  Co2  1  0.77609700  0.81479700  0.50171100  1.0
  Co  Co3  1  0.48932700  0.50089400  0.00088500  1.0
