# generated using pymatgen
data_TiNb4
_symmetry_space_group_name_H-M   'P 1'
_cell_length_a   4.13440300
_cell_length_b   12.69056100
_cell_length_c   12.69056100
_cell_angle_alpha   90.00000000
_cell_angle_beta   90.00000000
_cell_angle_gamma   90.00000000
_symmetry_Int_Tables_number   1
_chemical_formula_structural   TiNb4
_chemical_formula_sum   'Ti2 Nb8'
_cell_volume   665.84700262
_cell_formula_units_Z   2
loop_
 _symmetry_equiv_pos_site_id
 _symmetry_equiv_pos_as_xyz
  1  'x, y, z'
loop_
 _atom_site_type_symbol
 _atom_site_label
 _atom_site_symmetry_multiplicity
 _atom_site_fract_x
 _atom_site_fract_y
 _atom_site_fract_z
 _atom_site_occupancy
  Ti  Ti0  1  0.45144000  0.50000000  0.00000000  1.0
  Ti  Ti1  1  0.45144000  0.00000000  0.50000000  1.0
  Nb  Nb2  1  0.46809200  0.71666000  0.42659500  1.0
  Nb  Nb3  1  0.46809200  0.57340500  0.71666000  1.0
  Nb  Nb4  1  0.46809200  0.78334000  0.92659500  1.0
  Nb  Nb5  1  0.46809200  0.28334000  0.57340500  1.0
  Nb  Nb6  1  0.46809200  0.92659500  0.21666000  1.0
  Nb  Nb7  1  0.46809200  0.21666000  0.07340500  1.0
  Nb  Nb8  1  0.46809200  0.07340500  0.78334000  1.0
  Nb  Nb9  1  0.46809200  0.42659500  0.28334000  1.0
