# generated using pymatgen
data_SmFe
_symmetry_space_group_name_H-M   'P 1'
_cell_length_a   5.44908600
_cell_length_b   5.68044100
_cell_length_c   7.81482200
_cell_angle_alpha   90.00000000
_cell_angle_beta   90.00000000
_cell_angle_gamma   90.00000000
_symmetry_Int_Tables_number   1
_chemical_formula_structural   SmFe
_chemical_formula_sum   'Sm4 Fe4'
_cell_volume   241.89383841
_cell_formula_units_Z   4
loop_
 _symmetry_equiv_pos_site_id
 _symmetry_equiv_pos_as_xyz
  1  'x, y, z'
loop_
 _atom_site_type_symbol
 _atom_site_label
 _atom_site_symmetry_multiplicity
 _atom_site_fract_x
 _atom_site_fract_y
 _atom_site_fract_z
 _atom_site_occupancy
  Sm  Sm0  1  0.51530800  0.56049600  0.25000000  1.0
  Sm  Sm1  1  0.98469200  0.06049600  0.25000000  1.0
  Sm  Sm2  1  0.48469200  0.43950400  0.75000000  1.0
  Sm  Sm3  1  0.01530800  0.93950400  0.75000000  1.0
  Fe  Fe4  1  0.50000000  0.00000000  0.00000000  1.0
  Fe  Fe5  1  0.00000000  0.50000000  0.50000000  1.0
  Fe  Fe6  1  0.50000000  0.00000000  0.50000000  1.0
  Fe  Fe7  1  0.00000000  0.50000000  0.00000000  1.0
