# generated using pymatgen
data_TiMn
_symmetry_space_group_name_H-M   'P 1'
_cell_length_a   5.18896901
_cell_length_b   5.18904900
_cell_length_c   5.66634500
_cell_angle_alpha   90.00011825
_cell_angle_beta   117.25003693
_cell_angle_gamma   119.99940322
_symmetry_Int_Tables_number   1
_chemical_formula_structural   TiMn
_chemical_formula_sum   'Ti2 Mn2'
_cell_volume   112.15356104
_cell_formula_units_Z   2
loop_
 _symmetry_equiv_pos_site_id
 _symmetry_equiv_pos_as_xyz
  1  'x, y, z'
loop_
 _atom_site_type_symbol
 _atom_site_label
 _atom_site_symmetry_multiplicity
 _atom_site_fract_x
 _atom_site_fract_y
 _atom_site_fract_z
 _atom_site_occupancy
  Ti  Ti0  1  0.29280400  0.14640200  0.43920700  1.0
  Ti  Ti1  1  0.70720700  0.85360600  0.56081400  1.0
  Mn  Mn2  1  0.28237500  0.64118300  0.92354400  1.0
  Mn  Mn3  1  0.71757200  0.35878100  0.07636100  1.0
