# generated using pymatgen
data_Mn
_symmetry_space_group_name_H-M   'P 1'
_cell_length_a   6.05889800
_cell_length_b   6.08388035
_cell_length_c   20.13315765
_cell_angle_alpha   98.40623458
_cell_angle_beta   90.00000000
_cell_angle_gamma   119.86425681
_symmetry_Int_Tables_number   1
_chemical_formula_structural   Mn
_chemical_formula_sum   Mn16
_cell_volume   634.37927614
_cell_formula_units_Z   16
loop_
 _symmetry_equiv_pos_site_id
 _symmetry_equiv_pos_as_xyz
  1  'x, y, z'
loop_
 _atom_site_type_symbol
 _atom_site_label
 _atom_site_symmetry_multiplicity
 _atom_site_fract_x
 _atom_site_fract_y
 _atom_site_fract_z
 _atom_site_occupancy
  Mn  Mn0  1  0.62487900  0.75017800  0.87481100  1.0
  Mn  Mn1  1  0.75101300  0.50202600  0.74984400  1.0
  Mn  Mn2  1  0.12529900  0.75017800  0.87481100  1.0
  Mn  Mn3  1  0.64983900  0.29967800  0.46621800  1.0
  Mn  Mn4  1  0.87420800  0.24800500  0.62509800  1.0
  Mn  Mn5  1  0.09863400  0.19726800  0.78047300  1.0
  Mn  Mn6  1  0.90056000  0.80112000  0.21871400  1.0
  Mn  Mn7  1  0.37379700  0.24800500  0.62509800  1.0
  Mn  Mn8  1  0.12511700  0.75005900  0.37523900  1.0
  Mn  Mn9  1  0.34974200  0.69948400  0.53231900  1.0
  Mn  Mn10  1  0.62494200  0.75005900  0.37523900  1.0
  Mn  Mn11  1  0.87647500  0.25200200  0.12488200  1.0
  Mn  Mn12  1  0.37552700  0.25200200  0.12488200  1.0
  Mn  Mn13  1  0.60009900  0.20019800  0.28349900  1.0
  Mn  Mn14  1  0.49890700  0.99781400  0.99958400  1.0
  Mn  Mn15  1  0.84905400  0.69810800  0.03121800  1.0
