# generated using pymatgen
data_Mn
_symmetry_space_group_name_H-M   'P 1'
_cell_length_a   5.86372600
_cell_length_b   6.22735277
_cell_length_c   14.93097957
_cell_angle_alpha   95.16202072
_cell_angle_beta   90.00000000
_cell_angle_gamma   118.08650279
_symmetry_Int_Tables_number   1
_chemical_formula_structural   Mn
_chemical_formula_sum   Mn12
_cell_volume   478.49881559
_cell_formula_units_Z   12
loop_
 _symmetry_equiv_pos_site_id
 _symmetry_equiv_pos_as_xyz
  1  'x, y, z'
loop_
 _atom_site_type_symbol
 _atom_site_label
 _atom_site_symmetry_multiplicity
 _atom_site_fract_x
 _atom_site_fract_y
 _atom_site_fract_z
 _atom_site_occupancy
  Mn  Mn0  1  0.82837200  0.15792600  0.83355200  1.0
  Mn  Mn1  1  0.33140500  0.66281000  0.83280600  1.0
  Mn  Mn2  1  0.49992800  0.49989700  0.50001300  1.0
  Mn  Mn3  1  0.32955400  0.15792600  0.83355200  1.0
  Mn  Mn4  1  0.16530900  0.33061800  0.66673500  1.0
  Mn  Mn5  1  0.99998900  0.99997800  0.50041200  1.0
  Mn  Mn6  1  0.17120800  0.84291100  0.16599000  1.0
  Mn  Mn7  1  0.99996900  0.49989700  0.50001300  1.0
  Mn  Mn8  1  0.67170300  0.84291100  0.16599000  1.0
  Mn  Mn9  1  0.83585700  0.67171400  0.33360800  1.0
  Mn  Mn10  1  0.66820700  0.33641400  0.16827900  1.0
  Mn  Mn11  1  0.16599900  0.33199800  0.04389300  1.0
