# generated using pymatgen
data_Mn
_symmetry_space_group_name_H-M   'P 1'
_cell_length_a   6.07409152
_cell_length_b   6.07409152
_cell_length_c   6.07409219
_cell_angle_alpha   60.19765702
_cell_angle_beta   60.19765702
_cell_angle_gamma   60.19766422
_symmetry_Int_Tables_number   1
_chemical_formula_structural   Mn
_chemical_formula_sum   Mn4
_cell_volume   159.17268007
_cell_formula_units_Z   4
loop_
 _symmetry_equiv_pos_site_id
 _symmetry_equiv_pos_as_xyz
  1  'x, y, z'
loop_
 _atom_site_type_symbol
 _atom_site_label
 _atom_site_symmetry_multiplicity
 _atom_site_fract_x
 _atom_site_fract_y
 _atom_site_fract_z
 _atom_site_occupancy
  Mn  Mn0  1  0.24481700  0.24481700  0.24481700  1.0
  Mn  Mn1  1  0.62494100  0.12484300  0.62494100  1.0
  Mn  Mn2  1  0.62494100  0.62494100  0.12484300  1.0
  Mn  Mn3  1  0.12484300  0.62494100  0.62494100  1.0
