# generated using pymatgen
data_Mn
_symmetry_space_group_name_H-M   'P 1'
_cell_length_a   3.00452000
_cell_length_b   7.67003563
_cell_length_c   7.72330816
_cell_angle_alpha   74.57160180
_cell_angle_beta   78.78390449
_cell_angle_gamma   78.70498126
_symmetry_Int_Tables_number   1
_chemical_formula_structural   Mn
_chemical_formula_sum   Mn4
_cell_volume   166.32506215
_cell_formula_units_Z   4
loop_
 _symmetry_equiv_pos_site_id
 _symmetry_equiv_pos_as_xyz
  1  'x, y, z'
loop_
 _atom_site_type_symbol
 _atom_site_label
 _atom_site_symmetry_multiplicity
 _atom_site_fract_x
 _atom_site_fract_y
 _atom_site_fract_z
 _atom_site_occupancy
  Mn  Mn0  1  0.37534300  0.30547800  0.94383600  1.0
  Mn  Mn1  1  0.85472500  0.97344700  0.31710300  1.0
  Mn  Mn2  1  0.14527500  0.02655300  0.68289700  1.0
  Mn  Mn3  1  0.62465700  0.69452200  0.05616400  1.0
