# generated using pymatgen
data_Mn
_symmetry_space_group_name_H-M   'P 1'
_cell_length_a   6.02016800
_cell_length_b   6.13032264
_cell_length_c   6.03079000
_cell_angle_alpha   119.46435133
_cell_angle_beta   89.99999999
_cell_angle_gamma   119.40735537
_symmetry_Int_Tables_number   1
_chemical_formula_structural   Mn
_chemical_formula_sum   Mn4
_cell_volume   160.02685637
_cell_formula_units_Z   4
loop_
 _symmetry_equiv_pos_site_id
 _symmetry_equiv_pos_as_xyz
  1  'x, y, z'
loop_
 _atom_site_type_symbol
 _atom_site_label
 _atom_site_symmetry_multiplicity
 _atom_site_fract_x
 _atom_site_fract_y
 _atom_site_fract_z
 _atom_site_occupancy
  Mn  Mn0  1  0.11183800  0.22367600  0.86183800  1.0
  Mn  Mn1  1  0.88816200  0.77632400  0.13816200  1.0
  Mn  Mn2  1  0.50000000  0.50000000  0.50000000  1.0
  Mn  Mn3  1  0.00000000  0.50000000  0.50000000  1.0
