# generated using pymatgen
data_Mn
_symmetry_space_group_name_H-M   'P 1'
_cell_length_a   5.17293300
_cell_length_b   6.12293800
_cell_length_c   10.36088846
_cell_angle_alpha   90.00000000
_cell_angle_beta   91.36739623
_cell_angle_gamma   90.00000000
_symmetry_Int_Tables_number   1
_chemical_formula_structural   Mn
_chemical_formula_sum   Mn8
_cell_volume   328.07264678
_cell_formula_units_Z   8
loop_
 _symmetry_equiv_pos_site_id
 _symmetry_equiv_pos_as_xyz
  1  'x, y, z'
loop_
 _atom_site_type_symbol
 _atom_site_label
 _atom_site_symmetry_multiplicity
 _atom_site_fract_x
 _atom_site_fract_y
 _atom_site_fract_z
 _atom_site_occupancy
  Mn  Mn0  1  0.50569100  0.75288200  0.01985800  1.0
  Mn  Mn1  1  0.50688000  0.74714500  0.48532500  1.0
  Mn  Mn2  1  0.49430900  0.25288200  0.98014200  1.0
  Mn  Mn3  1  0.49312000  0.24714500  0.51467500  1.0
  Mn  Mn4  1  0.00357700  0.49657800  0.98875400  1.0
  Mn  Mn5  1  0.00367700  0.00260200  0.51253700  1.0
  Mn  Mn6  1  0.99642300  0.99657800  0.01124600  1.0
  Mn  Mn7  1  0.99632300  0.50260200  0.48746300  1.0
