# generated using pymatgen
data_Mn
_symmetry_space_group_name_H-M   'P 1'
_cell_length_a   6.05294000
_cell_length_b   6.07916319
_cell_length_c   14.86591277
_cell_angle_alpha   90.77771898
_cell_angle_beta   90.00000000
_cell_angle_gamma   119.85740895
_symmetry_Int_Tables_number   1
_chemical_formula_structural   Mn
_chemical_formula_sum   Mn12
_cell_volume   474.35273412
_cell_formula_units_Z   12
loop_
 _symmetry_equiv_pos_site_id
 _symmetry_equiv_pos_as_xyz
  1  'x, y, z'
loop_
 _atom_site_type_symbol
 _atom_site_label
 _atom_site_symmetry_multiplicity
 _atom_site_fract_x
 _atom_site_fract_y
 _atom_site_fract_z
 _atom_site_occupancy
  Mn  Mn0  1  0.16563300  0.82952600  0.16579800  1.0
  Mn  Mn1  1  0.99196500  0.98393000  0.37812400  1.0
  Mn  Mn2  1  0.99929700  0.99859400  0.00024300  1.0
  Mn  Mn3  1  0.66389300  0.82952600  0.16579800  1.0
  Mn  Mn4  1  0.50002000  0.49861200  0.49980500  1.0
  Mn  Mn5  1  0.32500500  0.65001000  0.70976500  1.0
  Mn  Mn6  1  0.99859200  0.49861200  0.49980500  1.0
  Mn  Mn7  1  0.83395300  0.16763200  0.83457000  1.0
  Mn  Mn8  1  0.67365600  0.34731200  0.28919100  1.0
  Mn  Mn9  1  0.33367900  0.16763200  0.83457000  1.0
  Mn  Mn10  1  0.00668800  0.01337600  0.62201000  1.0
  Mn  Mn11  1  0.33928700  0.67857400  0.95736900  1.0
