# generated using pymatgen
data_Mn
_symmetry_space_group_name_H-M   'P 1'
_cell_length_a   5.91320100
_cell_length_b   6.19658571
_cell_length_c   14.90796886
_cell_angle_alpha   86.07559801
_cell_angle_beta   89.79919875
_cell_angle_gamma   61.56675957
_symmetry_Int_Tables_number   1
_chemical_formula_structural   Mn
_chemical_formula_sum   Mn12
_cell_volume   478.96986182
_cell_formula_units_Z   12
loop_
 _symmetry_equiv_pos_site_id
 _symmetry_equiv_pos_as_xyz
  1  'x, y, z'
loop_
 _atom_site_type_symbol
 _atom_site_label
 _atom_site_symmetry_multiplicity
 _atom_site_fract_x
 _atom_site_fract_y
 _atom_site_fract_z
 _atom_site_occupancy
  Mn  Mn0  1  0.33333333  0.33408900  0.83387800  1.0
  Mn  Mn1  1  0.33353700  0.83341100  0.83301700  1.0
  Mn  Mn2  1  0.99598600  0.00654300  0.49922800  1.0
  Mn  Mn3  1  0.83301700  0.83261300  0.83320000  1.0
  Mn  Mn4  1  0.99474200  0.51085400  0.50045400  1.0
  Mn  Mn5  1  0.83450600  0.33114500  0.33361900  1.0
  Mn  Mn6  1  0.83059800  0.34220400  0.71202800  1.0
  Mn  Mn7  1  0.67020400  0.66066800  0.16886600  1.0
  Mn  Mn8  1  0.49432800  0.51073100  0.50023800  1.0
  Mn  Mn9  1  0.67285700  0.15550600  0.16581300  1.0
  Mn  Mn10  1  0.17221900  0.15534200  0.16604600  1.0
  Mn  Mn11  1  0.17025400  0.66302600  0.04617200  1.0
