# generated using pymatgen
data_NbNi2
_symmetry_space_group_name_H-M   'P 1'
_cell_length_a   10.21240443
_cell_length_b   10.23681641
_cell_length_c   15.36080827
_cell_angle_alpha   80.45556813
_cell_angle_beta   70.58442440
_cell_angle_gamma   60.07885471
_symmetry_Int_Tables_number   1
_chemical_formula_structural   NbNi2
_chemical_formula_sum   'Nb16 Ni32'
_cell_volume   1312.66767304
_cell_formula_units_Z   16
loop_
 _symmetry_equiv_pos_site_id
 _symmetry_equiv_pos_as_xyz
  1  'x, y, z'
loop_
 _atom_site_type_symbol
 _atom_site_label
 _atom_site_symmetry_multiplicity
 _atom_site_fract_x
 _atom_site_fract_y
 _atom_site_fract_z
 _atom_site_occupancy
  Nb  Nb0  1  0.65994200  0.27470800  0.35523700  1.0
  Nb  Nb1  1  0.19076100  0.30515500  0.35441400  1.0
  Nb  Nb2  1  0.06427800  0.77585600  0.64485700  1.0
  Nb  Nb3  1  0.79747200  0.30398700  0.14578000  1.0
  Nb  Nb4  1  0.45913500  0.27585600  0.85514300  1.0
  Nb  Nb5  1  0.06534900  0.27470800  0.64476300  1.0
  Nb  Nb6  1  0.46011200  0.77470800  0.85523700  1.0
  Nb  Nb7  1  0.29517500  0.80515500  0.14558600  1.0
  Nb  Nb8  1  0.15986700  0.77585600  0.35514300  1.0
  Nb  Nb9  1  0.89854200  0.30398700  0.85422000  1.0
  Nb  Nb10  1  0.50408400  0.30515500  0.64558600  1.0
  Nb  Nb11  1  0.50276200  0.80398700  0.64578000  1.0
  Nb  Nb12  1  0.76517900  0.77470800  0.14476300  1.0
  Nb  Nb13  1  0.26501000  0.27585600  0.14485700  1.0
  Nb  Nb14  1  0.89967000  0.80515500  0.85441400  1.0
  Nb  Nb15  1  0.69325200  0.80398700  0.35422000  1.0
  Ni  Ni16  1  0.18395300  0.11927700  0.99774400  1.0
  Ni  Ni17  1  0.28587400  0.12117400  0.81376000  1.0
  Ni  Ni18  1  0.69677000  0.11927700  0.00225600  1.0
  Ni  Ni19  1  0.36541100  0.95757500  0.31242300  1.0
  Ni  Ni20  1  0.44902600  0.61927700  0.49774400  1.0
  Ni  Ni21  1  0.02607000  0.94785900  1.00000000  1.0
  Ni  Ni22  1  0.77607000  0.44785900  0.50000000  1.0
  Ni  Ni23  1  0.84963400  0.62117400  0.68624000  1.0
  Ni  Ni24  1  0.52143500  0.95713100  0.00000000  1.0
  Ni  Ni25  1  0.26575600  0.95466500  0.49666100  1.0
  Ni  Ni26  1  0.67701400  0.95757500  0.68757700  1.0
  Ni  Ni27  1  0.84940100  0.12200200  0.68554500  1.0
  Ni  Ni28  1  0.69352700  0.61294600  1.00000000  1.0
  Ni  Ni29  1  0.09305300  0.62200200  0.18554500  1.0
  Ni  Ni30  1  0.27143500  0.45713100  0.50000000  1.0
  Ni  Ni31  1  0.59295200  0.12117400  0.18624000  1.0
  Ni  Ni32  1  0.02859800  0.12200200  0.31445500  1.0
  Ni  Ni33  1  0.92951200  0.95718700  0.18580800  1.0
  Ni  Ni34  1  0.86532000  0.45718700  0.31419200  1.0
  Ni  Ni35  1  0.11459100  0.45757500  0.81242300  1.0
  Ni  Ni36  1  0.18647400  0.62705200  0.00000000  1.0
  Ni  Ni37  1  0.77957800  0.95466500  0.50333900  1.0
  Ni  Ni38  1  0.93647400  0.12705200  0.50000000  1.0
  Ni  Ni39  1  0.03291700  0.45466500  0.99666100  1.0
  Ni  Ni40  1  0.93169700  0.61927700  0.50225600  1.0
  Ni  Ni41  1  0.28494600  0.62200200  0.81445500  1.0
  Ni  Ni42  1  0.42783400  0.45757500  0.18757700  1.0
  Ni  Ni43  1  0.11330100  0.95718700  0.81419200  1.0
  Ni  Ni44  1  0.51241800  0.45466500  0.00333900  1.0
  Ni  Ni45  1  0.52919200  0.62117400  0.31376000  1.0
  Ni  Ni46  1  0.44352700  0.11294600  0.50000000  1.0
  Ni  Ni47  1  0.67749300  0.45718700  0.68580800  1.0
