# generated using pymatgen
data_Co
_symmetry_space_group_name_H-M   'P 1'
_cell_length_a   5.08715600
_cell_length_b   5.08715600
_cell_length_c   6.04294120
_cell_angle_alpha   114.89250886
_cell_angle_beta   114.89250885
_cell_angle_gamma   90.00000001
_symmetry_Int_Tables_number   1
_chemical_formula_structural   Co
_chemical_formula_sum   Co2
_cell_volume   125.66071978
_cell_formula_units_Z   2
loop_
 _symmetry_equiv_pos_site_id
 _symmetry_equiv_pos_as_xyz
  1  'x, y, z'
loop_
 _atom_site_type_symbol
 _atom_site_label
 _atom_site_symmetry_multiplicity
 _atom_site_fract_x
 _atom_site_fract_y
 _atom_site_fract_z
 _atom_site_occupancy
  Co  Co0  1  0.75000000  0.25000000  0.50000000  1.0
  Co  Co1  1  0.00000000  0.00000000  0.00000000  1.0
