# generated using pymatgen
data_HoMn
_symmetry_space_group_name_H-M   'P 1'
_cell_length_a   5.61233800
_cell_length_b   6.11740084
_cell_length_c   12.54384500
_cell_angle_alpha   90.00000000
_cell_angle_beta   90.00000000
_cell_angle_gamma   117.30448833
_symmetry_Int_Tables_number   1
_chemical_formula_structural   HoMn
_chemical_formula_sum   'Ho6 Mn6'
_cell_volume   382.68250251
_cell_formula_units_Z   6
loop_
 _symmetry_equiv_pos_site_id
 _symmetry_equiv_pos_as_xyz
  1  'x, y, z'
loop_
 _atom_site_type_symbol
 _atom_site_label
 _atom_site_symmetry_multiplicity
 _atom_site_fract_x
 _atom_site_fract_y
 _atom_site_fract_z
 _atom_site_occupancy
  Ho  Ho0  1  0.97246000  0.00000000  0.66094700  1.0
  Ho  Ho1  1  0.02754000  0.00000000  0.16094700  1.0
  Ho  Ho2  1  0.29944900  0.66635300  0.71314200  1.0
  Ho  Ho3  1  0.63309600  0.33364700  0.71314200  1.0
  Ho  Ho4  1  0.70055100  0.33364700  0.21314200  1.0
  Ho  Ho5  1  0.36690400  0.66635300  0.21314200  1.0
  Mn  Mn6  1  0.59949300  0.00000000  0.95800100  1.0
  Mn  Mn7  1  0.95751700  0.64141400  0.97828100  1.0
  Mn  Mn8  1  0.31610300  0.35858600  0.97828100  1.0
  Mn  Mn9  1  0.40050700  0.00000000  0.45800100  1.0
  Mn  Mn10  1  0.04248300  0.35858600  0.47828100  1.0
  Mn  Mn11  1  0.68389700  0.64141400  0.47828100  1.0
