# generated using pymatgen
data_Tl
_symmetry_space_group_name_H-M   'P 1'
_cell_length_a   7.88644734
_cell_length_b   7.88644734
_cell_length_c   15.37830250
_cell_angle_alpha   97.44445913
_cell_angle_beta   97.44445913
_cell_angle_gamma   90.06480061
_symmetry_Int_Tables_number   1
_chemical_formula_structural   Tl
_chemical_formula_sum   Tl8
_cell_volume   940.25716570
_cell_formula_units_Z   8
loop_
 _symmetry_equiv_pos_site_id
 _symmetry_equiv_pos_as_xyz
  1  'x, y, z'
loop_
 _atom_site_type_symbol
 _atom_site_label
 _atom_site_symmetry_multiplicity
 _atom_site_fract_x
 _atom_site_fract_y
 _atom_site_fract_z
 _atom_site_occupancy
  Tl  Tl0  1  0.34412300  0.22737700  0.38050000  1.0
  Tl  Tl1  1  0.77262300  0.65587700  0.11950000  1.0
  Tl  Tl2  1  0.65587700  0.77262300  0.61950000  1.0
  Tl  Tl3  1  0.22737700  0.34412300  0.88050000  1.0
  Tl  Tl4  1  0.78147900  0.15645000  0.11712000  1.0
  Tl  Tl5  1  0.84355000  0.21852100  0.38288000  1.0
  Tl  Tl6  1  0.21852100  0.84355000  0.88288000  1.0
  Tl  Tl7  1  0.15645000  0.78147900  0.61712000  1.0
