# generated using pymatgen
data_Fe
_symmetry_space_group_name_H-M   'P 1'
_cell_length_a   5.56209641
_cell_length_b   5.56209641
_cell_length_c   5.60594745
_cell_angle_alpha   60.25842307
_cell_angle_beta   60.25842307
_cell_angle_gamma   59.99999515
_symmetry_Int_Tables_number   1
_chemical_formula_structural   Fe
_chemical_formula_sum   Fe2
_cell_volume   123.11087460
_cell_formula_units_Z   2
loop_
 _symmetry_equiv_pos_site_id
 _symmetry_equiv_pos_as_xyz
  1  'x, y, z'
loop_
 _atom_site_type_symbol
 _atom_site_label
 _atom_site_symmetry_multiplicity
 _atom_site_fract_x
 _atom_site_fract_y
 _atom_site_fract_z
 _atom_site_occupancy
  Fe  Fe0  1  0.29760400  0.29760400  0.10718800  1.0
  Fe  Fe1  1  0.79182900  0.79182900  0.62451300  1.0
