# generated using pymatgen
data_Fe
_symmetry_space_group_name_H-M   'P 1'
_cell_length_a   5.48223400
_cell_length_b   5.72990500
_cell_length_c   7.86436800
_cell_angle_alpha   90.00000729
_cell_angle_beta   89.99989675
_cell_angle_gamma   89.99997955
_symmetry_Int_Tables_number   1
_chemical_formula_structural   Fe
_chemical_formula_sum   Fe4
_cell_volume   247.04087545
_cell_formula_units_Z   4
loop_
 _symmetry_equiv_pos_site_id
 _symmetry_equiv_pos_as_xyz
  1  'x, y, z'
loop_
 _atom_site_type_symbol
 _atom_site_label
 _atom_site_symmetry_multiplicity
 _atom_site_fract_x
 _atom_site_fract_y
 _atom_site_fract_z
 _atom_site_occupancy
  Fe  Fe0  1  0.50002000  0.99998400  0.99998500  1.0
  Fe  Fe1  1  0.00000100  0.50001600  0.50000200  1.0
  Fe  Fe2  1  0.49998800  0.99999800  0.49999300  1.0
  Fe  Fe3  1  0.00001100  0.49998900  0.00000700  1.0
