# generated using pymatgen
data_SnO2
_symmetry_space_group_name_H-M   'P 1'
_cell_length_a   10.74358506
_cell_length_b   10.73813334
_cell_length_c   10.86256770
_cell_angle_alpha   89.35655113
_cell_angle_beta   86.09035595
_cell_angle_gamma   94.92152262
_symmetry_Int_Tables_number   1
_chemical_formula_structural   SnO2
_chemical_formula_sum   'Sn30 O60'
_cell_volume   1245.46173975
_cell_formula_units_Z   30
loop_
 _symmetry_equiv_pos_site_id
 _symmetry_equiv_pos_as_xyz
  1  'x, y, z'
loop_
 _atom_site_type_symbol
 _atom_site_label
 _atom_site_symmetry_multiplicity
 _atom_site_fract_x
 _atom_site_fract_y
 _atom_site_fract_z
 _atom_site_occupancy
  Sn  Sn0  1  0.97946474  0.24955801  0.17356741  1
  Sn  Sn1  1  0.54699753  0.49213630  0.96362346  1
  Sn  Sn2  1  0.94471975  0.82873939  0.71168356  1
  Sn  Sn3  1  0.38884243  0.64069651  0.73965393  1
  Sn  Sn4  1  0.06078658  0.51454134  0.86405734  1
  Sn  Sn5  1  0.80089921  0.54708170  0.70881303  1
  Sn  Sn6  1  0.33672844  0.30232894  0.71204144  1
  Sn  Sn7  1  0.64575941  0.31595527  0.23096570  1
  Sn  Sn8  1  0.09032836  0.59979000  0.51890600  1
  Sn  Sn9  1  0.49530625  0.07647927  0.10425851  1
  Sn  Sn10  1  0.86294616  0.67293232  0.02157581  1
  Sn  Sn11  1  0.38167447  0.77790631  0.30222333  1
  Sn  Sn12  1  0.20785050  0.74052816  0.01492350  1
  Sn  Sn13  1  0.55675712  0.80126809  0.95402267  1
  Sn  Sn14  1  0.45697199  0.46250987  0.48961529  1
  Sn  Sn15  1  0.27701954  0.30276543  0.99724329  1
  Sn  Sn16  1  0.95907552  0.98844597  0.01311355  1
  Sn  Sn17  1  0.13713942  0.26124682  0.45956688  1
  Sn  Sn18  1  0.88057075  0.76684926  0.33153998  1
  Sn  Sn19  1  0.60874631  0.78551900  0.56760377  1
  Sn  Sn20  1  0.20498641  0.01212126  0.24702564  1
  Sn  Sn21  1  0.27208379  0.49309050  0.24376172  1
  Sn  Sn22  1  0.00972904  0.12811965  0.73311008  1
  Sn  Sn23  1  0.62440607  0.62133348  0.25526977  1
  Sn  Sn24  1  0.24385784  0.00772186  0.87800384  1
  Sn  Sn25  1  0.26205842  0.90010072  0.57172136  1
  Sn  Sn26  1  0.84816937  0.05768841  0.48233757  1
  Sn  Sn27  1  0.54229774  0.07261716  0.47262026  1
  Sn  Sn28  1  0.78371216  0.28898317  0.93241510  1
  Sn  Sn29  1  0.85875356  0.34650738  0.45301573  1
  O  O30  1  0.89849769  0.44288923  0.97087631  1
  O  O31  1  0.21626608  0.64602164  0.84217686  1
  O  O32  1  0.31302884  0.48112429  0.63686000  1
  O  O33  1  0.63180643  0.47836102  0.12536447  1
  O  O34  1  0.83365283  0.35388302  0.25502861  1
  O  O35  1  0.61029141  0.44232259  0.36468885  1
  O  O36  1  0.21398765  0.62148816  0.37292925  1
  O  O37  1  0.86553955  0.16257319  0.05392303  1
  O  O38  1  0.50206808  0.87539854  0.42574400  1
  O  O39  1  0.44396894  0.59736857  0.34176957  1
  O  O40  1  0.34882975  0.17272779  0.85046758  1
  O  O41  1  0.90628461  0.97067498  0.82658486  1
  O  O42  1  0.41561658  0.40137126  0.85899245  1
  O  O43  1  0.09552779  0.76340033  0.61548056  1
  O  O44  1  0.34418675  0.74224662  0.59493337  1
  O  O45  1  0.04875774  0.61819439  0.03087863  1
  O  O46  1  0.35080594  0.87288783  0.94375522  1
  O  O47  1  0.04622567  0.42281612  0.44279737  1
  O  O48  1  0.93620406  0.64322079  0.44327128  1
  O  O49  1  0.99836572  0.50649333  0.68354022  1
  O  O50  1  0.14470287  0.36012083  0.14670340  1
  O  O51  1  0.23562080  0.87164455  0.39261444  1
  O  O52  1  0.96666754  0.98037550  0.59262088  1
  O  O53  1  0.46956093  0.29240702  0.57144936  1
  O  O54  1  0.81350633  0.63819804  0.20452390  1
  O  O55  1  0.68762952  0.42937030  0.83751610  1
  O  O56  1  0.97944797  0.20450598  0.35242511  1
  O  O57  1  0.09301445  0.12214058  0.90672014  1
  O  O58  1  0.75550141  0.44056302  0.56858670  1
  O  O59  1  0.72114190  0.18852809  0.44285695  1
  O  O60  1  0.16667945  0.36671542  0.86767999  1
  O  O61  1  0.67788100  0.97434130  0.56399037  1
  O  O62  1  0.13667329  0.83165788  0.18764200  1
  O  O63  1  0.61878154  0.24451661  0.04964972  1
  O  O64  1  0.17120295  0.23285994  0.64137796  1
  O  O65  1  0.68147225  0.65864633  0.95129634  1
  O  O66  1  0.54326355  0.75827049  0.16194016  1
  O  O67  1  0.53298403  0.79505866  0.75325182  1
  O  O68  1  0.37603850  0.94223477  0.19897278  1
  O  O69  1  0.44163925  0.63738077  0.92611188  1
  O  O70  1  0.10337422  0.87761493  0.94860455  1
  O  O71  1  0.59752802  0.98368446  0.98299344  1
  O  O72  1  0.86830387  0.23344430  0.78361080  1
  O  O73  1  0.06241085  0.07841719  0.15166219  1
  O  O74  1  0.94479339  0.21140399  0.56683900  1
  O  O75  1  0.86961510  0.94965483  0.33956310  1
  O  O76  1  0.38802205  0.41716129  0.10409833  1
  O  O77  1  0.78216180  0.73189920  0.65279364  1
  O  O78  1  0.21544785  0.11122313  0.39868092  1
  O  O79  1  0.54236471  0.59569889  0.60763585  1
  O  O80  1  0.92000112  0.66949180  0.83259927  1
  O  O81  1  0.16743720  0.97781061  0.71495497  1
  O  O82  1  0.30165025  0.66357355  0.15014493  1
  O  O83  1  0.00229808  0.82265170  0.17385006  1
  O  O84  1  0.30158223  0.37297322  0.38692054  1
  O  O85  1  0.69468411  0.72339785  0.40090647  1
  O  O86  1  0.31394753  0.13585045  0.08884984  1
  O  O87  1  0.82160614  0.85247842  0.04478848  1
  O  O88  1  0.39591475  0.04292388  0.59557089  1
  O  O89  1  0.54027119  0.14882102  0.28111373  1
