# generated using pymatgen
data_SnO2
_symmetry_space_group_name_H-M   'P 1'
_cell_length_a   11.27496073
_cell_length_b   10.68147953
_cell_length_c   10.55168124
_cell_angle_alpha   89.74487214
_cell_angle_beta   93.15496635
_cell_angle_gamma   91.66408474
_symmetry_Int_Tables_number   1
_chemical_formula_structural   SnO2
_chemical_formula_sum   'Sn30 O60'
_cell_volume   1268.30700882
_cell_formula_units_Z   30
loop_
 _symmetry_equiv_pos_site_id
 _symmetry_equiv_pos_as_xyz
  1  'x, y, z'
loop_
 _atom_site_type_symbol
 _atom_site_label
 _atom_site_symmetry_multiplicity
 _atom_site_fract_x
 _atom_site_fract_y
 _atom_site_fract_z
 _atom_site_occupancy
  Sn  Sn0  1  0.84671085  0.09564591  0.16102282  1
  Sn  Sn1  1  0.49518999  0.57510048  0.95020102  1
  Sn  Sn2  1  0.95575901  0.82466884  0.65557761  1
  Sn  Sn3  1  0.48666377  0.87446442  0.72056504  1
  Sn  Sn4  1  0.03613113  0.65141360  0.89982010  1
  Sn  Sn5  1  0.75671532  0.54513067  0.73384890  1
  Sn  Sn6  1  0.41301674  0.35298903  0.70157287  1
  Sn  Sn7  1  0.48910053  0.24520631  0.09616781  1
  Sn  Sn8  1  0.11006741  0.59124826  0.45495549  1
  Sn  Sn9  1  0.45747902  0.97287842  0.33412073  1
  Sn  Sn10  1  0.89010966  0.40195356  0.02707332  1
  Sn  Sn11  1  0.20100687  0.59987355  0.15879334  1
  Sn  Sn12  1  0.28387212  0.77199860  0.91780736  1
  Sn  Sn13  1  0.59545535  0.89780456  0.05854855  1
  Sn  Sn14  1  0.49489635  0.55478870  0.49858343  1
  Sn  Sn15  1  0.22246097  0.36283353  0.95659393  1
  Sn  Sn16  1  0.01049078  0.92184254  0.00643694  1
  Sn  Sn17  1  0.13749095  0.29797038  0.58249500  1
  Sn  Sn18  1  0.91380702  0.65482035  0.21700151  1
  Sn  Sn19  1  0.69284571  0.77219173  0.47653738  1
  Sn  Sn20  1  0.09570455  0.14959841  0.30416645  1
  Sn  Sn21  1  0.28688978  0.35513625  0.33817741  1
  Sn  Sn22  1  0.95256458  0.17437731  0.83759063  1
  Sn  Sn23  1  0.63700932  0.56349769  0.22123438  1
  Sn  Sn24  1  0.28885005  0.09247740  0.83882497  1
  Sn  Sn25  1  0.19500403  0.93297781  0.53069109  1
  Sn  Sn26  1  0.87511077  0.09104774  0.54240669  1
  Sn  Sn27  1  0.57944973  0.25785633  0.43876771  1
  Sn  Sn28  1  0.65136338  0.14145826  0.81813693  1
  Sn  Sn29  1  0.80996569  0.42978210  0.46774788  1
  O  O30  1  0.80989062  0.28695764  0.88448868  1
  O  O31  1  0.15549191  0.73516559  0.77988033  1
  O  O32  1  0.38903295  0.53163458  0.63575186  1
  O  O33  1  0.53361090  0.44159166  0.09779727  1
  O  O34  1  0.88514305  0.27667346  0.17142796  1
  O  O35  1  0.52743979  0.64915329  0.34034817  1
  O  O36  1  0.26009019  0.54806660  0.35997609  1
  O  O37  1  0.04413564  0.30824738  0.95300657  1
  O  O38  1  0.54744648  0.75088715  0.59372109  1
  O  O39  1  0.46136267  0.39644836  0.37241342  1
  O  O40  1  0.32374505  0.20636056  0.00496573  1
  O  O41  1  0.87876401  0.05146682  0.97195052  1
  O  O42  1  0.61556942  0.15517489  0.01340747  1
  O  O43  1  0.08792653  0.76588520  0.53195316  1
  O  O44  1  0.31677391  0.95499363  0.67738655  1
  O  O45  1  0.88783552  0.54425598  0.88220904  1
  O  O46  1  0.36544311  0.94143447  0.91543958  1
  O  O47  1  0.10323577  0.33018154  0.38174457  1
  O  O48  1  0.09322708  0.69536436  0.28402399  1
  O  O49  1  0.11656499  0.48371948  0.60777377  1
  O  O50  1  0.26491830  0.18337264  0.25845468  1
  O  O51  1  0.30218438  0.89692686  0.38940899  1
  O  O52  1  0.04033049  0.98516227  0.62716673  1
  O  O53  1  0.86064405  0.43002693  0.64836866  1
  O  O54  1  0.78916870  0.52794877  0.12725294  1
  O  O55  1  0.61571394  0.51379804  0.83008952  1
  O  O56  1  0.92410770  0.10505143  0.35823560  1
  O  O57  1  0.13794801  0.77900818  0.03353541  1
  O  O58  1  0.93943120  0.53587494  0.38794346  1
  O  O59  1  0.67780066  0.56125680  0.53561257  1
  O  O60  1  0.38400690  0.43131140  0.88100544  1
  O  O61  1  0.75817057  0.23112166  0.48494793  1
  O  O62  1  0.01727513  0.53796755  0.10710803  1
  O  O63  1  0.51826833  0.16256763  0.27700379  1
  O  O64  1  0.45197950  0.18232335  0.78530279  1
  O  O65  1  0.68230646  0.40179926  0.33041574  1
  O  O66  1  0.59996398  0.69859479  0.06709595  1
  O  O67  1  0.60984848  0.93845174  0.86388898  1
  O  O68  1  0.44987650  0.93884942  0.14675520  1
  O  O69  1  0.43522237  0.72143741  0.83306628  1
  O  O70  1  0.10672167  0.05198243  0.88680396  1
  O  O71  1  0.72798599  0.96162772  0.17412252  1
  O  O72  1  0.81790998  0.07785029  0.72567243  1
  O  O73  1  0.02973900  0.03361862  0.16666363  1
  O  O74  1  0.98692114  0.22407412  0.64593776  1
  O  O75  1  0.83322838  0.90160316  0.51787261  1
  O  O76  1  0.17705795  0.54443209  0.94327629  1
  O  O77  1  0.81538625  0.70664986  0.64953052  1
  O  O78  1  0.16033963  0.11041773  0.48133077  1
  O  O79  1  0.56872693  0.34588054  0.60894261  1
  O  O80  1  0.94558098  0.81400709  0.84815396  1
  O  O81  1  0.22306240  0.26835565  0.76887178  1
  O  O82  1  0.25697686  0.41796696  0.14701195  1
  O  O83  1  0.35221255  0.66611784  0.06849094  1
  O  O84  1  0.30917892  0.30138148  0.53713688  1
  O  O85  1  0.76338457  0.68935619  0.31754054  1
  O  O86  1  0.49827147  0.08675542  0.51649402  1
  O  O87  1  0.90531649  0.79307892  0.09194159  1
  O  O88  1  0.57324571  0.02696923  0.61684697  1
  O  O89  1  0.61330645  0.90367023  0.37421143  1
