# generated using pymatgen
data_CeNi
_symmetry_space_group_name_H-M   'P 1'
_cell_length_a   6.25854300
_cell_length_b   12.23214400
_cell_length_c   12.53379900
_cell_angle_alpha   90.00000000
_cell_angle_beta   90.00000000
_cell_angle_gamma   90.00000000
_symmetry_Int_Tables_number   1
_chemical_formula_structural   CeNi
_chemical_formula_sum   'Ce8 Ni8'
_cell_volume   959.52998602
_cell_formula_units_Z   8
loop_
 _symmetry_equiv_pos_site_id
 _symmetry_equiv_pos_as_xyz
  1  'x, y, z'
loop_
 _atom_site_type_symbol
 _atom_site_label
 _atom_site_symmetry_multiplicity
 _atom_site_fract_x
 _atom_site_fract_y
 _atom_site_fract_z
 _atom_site_occupancy
  Ce  Ce0  1  0.28181100  0.75000000  0.30404000  1.0
  Ce  Ce1  1  0.75000000  0.50000000  0.30033400  1.0
  Ce  Ce2  1  0.78181100  0.75000000  0.69596000  1.0
  Ce  Ce3  1  0.75000000  0.00000000  0.30033400  1.0
  Ce  Ce4  1  0.71818900  0.25000000  0.69596000  1.0
  Ce  Ce5  1  0.25000000  0.00000000  0.69966600  1.0
  Ce  Ce6  1  0.21818900  0.25000000  0.30404000  1.0
  Ce  Ce7  1  0.25000000  0.50000000  0.69966600  1.0
  Ni  Ni8  1  0.95476000  0.13630400  0.89994800  1.0
  Ni  Ni9  1  0.04524000  0.63630400  0.10005200  1.0
  Ni  Ni10  1  0.95476000  0.36369600  0.89994800  1.0
  Ni  Ni11  1  0.54524000  0.63630400  0.89994800  1.0
  Ni  Ni12  1  0.54524000  0.86369600  0.89994800  1.0
  Ni  Ni13  1  0.45476000  0.36369600  0.10005200  1.0
  Ni  Ni14  1  0.04524000  0.86369600  0.10005200  1.0
  Ni  Ni15  1  0.45476000  0.13630400  0.10005200  1.0
