# generated using pymatgen
data_Fe
_symmetry_space_group_name_H-M   'P 1'
_cell_length_a   5.11710690
_cell_length_b   6.37568876
_cell_length_c   10.90160947
_cell_angle_alpha   91.65982091
_cell_angle_beta   90.00000000
_cell_angle_gamma   90.00000000
_symmetry_Int_Tables_number   1
_chemical_formula_structural   Fe
_chemical_formula_sum   Fe4
_cell_volume   355.51666040
_cell_formula_units_Z   4
loop_
 _symmetry_equiv_pos_site_id
 _symmetry_equiv_pos_as_xyz
  1  'x, y, z'
loop_
 _atom_site_type_symbol
 _atom_site_label
 _atom_site_symmetry_multiplicity
 _atom_site_fract_x
 _atom_site_fract_y
 _atom_site_fract_z
 _atom_site_occupancy
  Fe  Fe0  1  0.20661709  0.50575802  0.15711798  1.0
  Fe  Fe1  1  0.70661709  0.49424198  0.34288202  1.0
  Fe  Fe2  1  0.29338291  0.50575802  0.65711798  1.0
  Fe  Fe3  1  0.79338291  0.49424198  0.84288202  1.0
