# generated using pymatgen
data_Fe
_symmetry_space_group_name_H-M   'P 1'
_cell_length_a   5.13230200
_cell_length_b   6.23237968
_cell_length_c   11.03734200
_cell_angle_alpha   90.00000000
_cell_angle_beta   90.00000000
_cell_angle_gamma   91.30707992
_symmetry_Int_Tables_number   1
_chemical_formula_structural   Fe
_chemical_formula_sum   Fe4
_cell_volume   352.95357682
_cell_formula_units_Z   4
loop_
 _symmetry_equiv_pos_site_id
 _symmetry_equiv_pos_as_xyz
  1  'x, y, z'
loop_
 _atom_site_type_symbol
 _atom_site_label
 _atom_site_symmetry_multiplicity
 _atom_site_fract_x
 _atom_site_fract_y
 _atom_site_fract_z
 _atom_site_occupancy
  Fe  Fe0  1  0.44894700  0.75642900  0.66915400  1.0
  Fe  Fe1  1  0.55105300  0.24357100  0.16915400  1.0
  Fe  Fe2  1  0.94865600  0.24691200  0.83326200  1.0
  Fe  Fe3  1  0.05134400  0.75308800  0.33326200  1.0
