# generated using pymatgen
data_Fe
_symmetry_space_group_name_H-M   'P 1'
_cell_length_a   5.45603300
_cell_length_b   10.61018400
_cell_length_c   12.91359700
_cell_angle_alpha   90.00000000
_cell_angle_beta   90.00000000
_cell_angle_gamma   90.00000000
_symmetry_Int_Tables_number   1
_chemical_formula_structural   Fe
_chemical_formula_sum   Fe8
_cell_volume   747.56185484
_cell_formula_units_Z   8
loop_
 _symmetry_equiv_pos_site_id
 _symmetry_equiv_pos_as_xyz
  1  'x, y, z'
loop_
 _atom_site_type_symbol
 _atom_site_label
 _atom_site_symmetry_multiplicity
 _atom_site_fract_x
 _atom_site_fract_y
 _atom_site_fract_z
 _atom_site_occupancy
  Fe  Fe0  1  0.97303000  0.03532300  0.81358000  1.0
  Fe  Fe1  1  0.51694200  0.20520300  0.05574100  1.0
  Fe  Fe2  1  0.51694200  0.29479700  0.55574100  1.0
  Fe  Fe3  1  0.97303000  0.46467700  0.31358000  1.0
  Fe  Fe4  1  0.02697000  0.53532300  0.81358000  1.0
  Fe  Fe5  1  0.48305800  0.70520300  0.05574100  1.0
  Fe  Fe6  1  0.48305800  0.79479700  0.55574100  1.0
  Fe  Fe7  1  0.02697000  0.96467700  0.31358000  1.0
