# generated using pymatgen
data_Fe
_symmetry_space_group_name_H-M   'P 1'
_cell_length_a   5.00918559
_cell_length_b   5.40810409
_cell_length_c   6.33912300
_cell_angle_alpha   89.99834199
_cell_angle_beta   89.99888803
_cell_angle_gamma   89.97852180
_symmetry_Int_Tables_number   1
_chemical_formula_structural   Fe
_chemical_formula_sum   Fe2
_cell_volume   171.72807929
_cell_formula_units_Z   2
loop_
 _symmetry_equiv_pos_site_id
 _symmetry_equiv_pos_as_xyz
  1  'x, y, z'
loop_
 _atom_site_type_symbol
 _atom_site_label
 _atom_site_symmetry_multiplicity
 _atom_site_fract_x
 _atom_site_fract_y
 _atom_site_fract_z
 _atom_site_occupancy
  Fe  Fe0  1  0.06359350  0.17090350  0.49995250  1.0
  Fe  Fe1  1  0.56377100  0.82884900  0.00002200  1.0
