# generated using pymatgen
data_Fe
_symmetry_space_group_name_H-M   'P 1'
_cell_length_a   5.06900243
_cell_length_b   5.06921700
_cell_length_c   11.63816300
_cell_angle_alpha   90.00096198
_cell_angle_beta   89.99855144
_cell_angle_gamma   60.00143828
_symmetry_Int_Tables_number   1
_chemical_formula_structural   Fe
_chemical_formula_sum   Fe3
_cell_volume   258.99104199
_cell_formula_units_Z   3
loop_
 _symmetry_equiv_pos_site_id
 _symmetry_equiv_pos_as_xyz
  1  'x, y, z'
loop_
 _atom_site_type_symbol
 _atom_site_label
 _atom_site_symmetry_multiplicity
 _atom_site_fract_x
 _atom_site_fract_y
 _atom_site_fract_z
 _atom_site_occupancy
  Fe  Fe0  1  0.54585450  0.45402000  0.83339500  1.0
  Fe  Fe1  1  0.45385700  0.00031750  0.49992700  1.0
  Fe  Fe2  1  0.00043150  0.54543650  0.16668800  1.0
