# generated using pymatgen
data_Fe
_symmetry_space_group_name_H-M   'P 1'
_cell_length_a   5.26358200
_cell_length_b   6.91652900
_cell_length_c   10.26347860
_cell_angle_alpha   90.68784643
_cell_angle_beta   90.00000000
_cell_angle_gamma   90.00000000
_symmetry_Int_Tables_number   1
_chemical_formula_structural   Fe
_chemical_formula_sum   Fe4
_cell_volume   373.62237728
_cell_formula_units_Z   4
loop_
 _symmetry_equiv_pos_site_id
 _symmetry_equiv_pos_as_xyz
  1  'x, y, z'
loop_
 _atom_site_type_symbol
 _atom_site_label
 _atom_site_symmetry_multiplicity
 _atom_site_fract_x
 _atom_site_fract_y
 _atom_site_fract_z
 _atom_site_occupancy
  Fe  Fe0  1  0.74663900  0.50253000  0.85937300  1.0
  Fe  Fe1  1  0.24663900  0.49747000  0.64062700  1.0
  Fe  Fe2  1  0.75336100  0.50253000  0.35937300  1.0
  Fe  Fe3  1  0.25336100  0.49747000  0.14062700  1.0
