# generated using pymatgen
data_Fe
_symmetry_space_group_name_H-M   'P 1'
_cell_length_a   5.11966100
_cell_length_b   6.36158300
_cell_length_c   10.77138500
_cell_angle_alpha   89.99978022
_cell_angle_beta   90.00008732
_cell_angle_gamma   89.99975981
_symmetry_Int_Tables_number   1
_chemical_formula_structural   Fe
_chemical_formula_sum   Fe4
_cell_volume   350.81483635
_cell_formula_units_Z   4
loop_
 _symmetry_equiv_pos_site_id
 _symmetry_equiv_pos_as_xyz
  1  'x, y, z'
loop_
 _atom_site_type_symbol
 _atom_site_label
 _atom_site_symmetry_multiplicity
 _atom_site_fract_x
 _atom_site_fract_y
 _atom_site_fract_z
 _atom_site_occupancy
  Fe  Fe0  1  0.29934900  0.25000400  0.08059300  1.0
  Fe  Fe1  1  0.79934300  0.74998700  0.41939300  1.0
  Fe  Fe2  1  0.20060700  0.24997700  0.58057700  1.0
  Fe  Fe3  1  0.70057600  0.74999200  0.91944000  1.0
