# generated using pymatgen
data_Fe
_symmetry_space_group_name_H-M   'P 1'
_cell_length_a   5.07693800
_cell_length_b   6.28760300
_cell_length_c   10.96777600
_cell_angle_alpha   90.00000000
_cell_angle_beta   90.00000000
_cell_angle_gamma   90.00000000
_symmetry_Int_Tables_number   1
_chemical_formula_structural   Fe
_chemical_formula_sum   Fe4
_cell_volume   350.11082946
_cell_formula_units_Z   4
loop_
 _symmetry_equiv_pos_site_id
 _symmetry_equiv_pos_as_xyz
  1  'x, y, z'
loop_
 _atom_site_type_symbol
 _atom_site_label
 _atom_site_symmetry_multiplicity
 _atom_site_fract_x
 _atom_site_fract_y
 _atom_site_fract_z
 _atom_site_occupancy
  Fe  Fe0  1  0.25740900  0.25006500  0.58334200  1.0
  Fe  Fe1  1  0.25740900  0.24993500  0.08334200  1.0
  Fe  Fe2  1  0.75740900  0.75006500  0.91665800  1.0
  Fe  Fe3  1  0.75740900  0.74993500  0.41665800  1.0
