# generated using pymatgen
data_Fe
_symmetry_space_group_name_H-M   'P 1'
_cell_length_a   5.03924924
_cell_length_b   5.49836700
_cell_length_c   6.30008442
_cell_angle_alpha   90.00061691
_cell_angle_beta   89.49511576
_cell_angle_gamma   90.00068924
_symmetry_Int_Tables_number   1
_chemical_formula_structural   Fe
_chemical_formula_sum   Fe2
_cell_volume   174.55370459
_cell_formula_units_Z   2
loop_
 _symmetry_equiv_pos_site_id
 _symmetry_equiv_pos_as_xyz
  1  'x, y, z'
loop_
 _atom_site_type_symbol
 _atom_site_label
 _atom_site_symmetry_multiplicity
 _atom_site_fract_x
 _atom_site_fract_y
 _atom_site_fract_z
 _atom_site_occupancy
  Fe  Fe0  1  0.00213200  0.83147650  0.98867350  1.0
  Fe  Fe1  1  0.50221300  0.16848550  0.48871050  1.0
