# generated using pymatgen
data_Fe
_symmetry_space_group_name_H-M   'P 1'
_cell_length_a   5.40546400
_cell_length_b   6.28931464
_cell_length_c   10.80559800
_cell_angle_alpha   90.00000000
_cell_angle_beta   90.00000000
_cell_angle_gamma   91.22381466
_symmetry_Int_Tables_number   1
_chemical_formula_structural   Fe
_chemical_formula_sum   Fe4
_cell_volume   367.27048687
_cell_formula_units_Z   4
loop_
 _symmetry_equiv_pos_site_id
 _symmetry_equiv_pos_as_xyz
  1  'x, y, z'
loop_
 _atom_site_type_symbol
 _atom_site_label
 _atom_site_symmetry_multiplicity
 _atom_site_fract_x
 _atom_site_fract_y
 _atom_site_fract_z
 _atom_site_occupancy
  Fe  Fe0  1  0.91676700  0.99809000  0.58118100  1.0
  Fe  Fe1  1  0.08323300  0.00191000  0.08118100  1.0
  Fe  Fe2  1  0.57305200  0.50840000  0.41756500  1.0
  Fe  Fe3  1  0.42694800  0.49160000  0.91756500  1.0
