# generated using pymatgen
data_Fe
_symmetry_space_group_name_H-M   'P 1'
_cell_length_a   5.03685400
_cell_length_b   6.34104800
_cell_length_c   10.98591249
_cell_angle_alpha   92.41117982
_cell_angle_beta   90.00000000
_cell_angle_gamma   90.00000000
_symmetry_Int_Tables_number   1
_chemical_formula_structural   Fe
_chemical_formula_sum   Fe4
_cell_volume   350.56766918
_cell_formula_units_Z   4
loop_
 _symmetry_equiv_pos_site_id
 _symmetry_equiv_pos_as_xyz
  1  'x, y, z'
loop_
 _atom_site_type_symbol
 _atom_site_label
 _atom_site_symmetry_multiplicity
 _atom_site_fract_x
 _atom_site_fract_y
 _atom_site_fract_z
 _atom_site_occupancy
  Fe  Fe0  1  0.20813400  0.51906800  0.90639800  1.0
  Fe  Fe1  1  0.29186600  0.51906800  0.40639800  1.0
  Fe  Fe2  1  0.70813400  0.48093200  0.59360200  1.0
  Fe  Fe3  1  0.79186600  0.48093200  0.09360200  1.0
