# generated using pymatgen
data_Fe
_symmetry_space_group_name_H-M   'P 1'
_cell_length_a   5.05774900
_cell_length_b   6.29576600
_cell_length_c   11.01063600
_cell_angle_alpha   90.00000000
_cell_angle_beta   90.00000000
_cell_angle_gamma   90.00000000
_symmetry_Int_Tables_number   1
_chemical_formula_structural   Fe
_chemical_formula_sum   Fe4
_cell_volume   350.60512191
_cell_formula_units_Z   4
loop_
 _symmetry_equiv_pos_site_id
 _symmetry_equiv_pos_as_xyz
  1  'x, y, z'
loop_
 _atom_site_type_symbol
 _atom_site_label
 _atom_site_symmetry_multiplicity
 _atom_site_fract_x
 _atom_site_fract_y
 _atom_site_fract_z
 _atom_site_occupancy
  Fe  Fe0  1  0.26266700  0.48982600  0.66704800  1.0
  Fe  Fe1  1  0.26266700  0.01017400  0.16704800  1.0
  Fe  Fe2  1  0.76266700  0.98982600  0.83295200  1.0
  Fe  Fe3  1  0.76266700  0.51017400  0.33295200  1.0
