# generated using pymatgen
data_Fe
_symmetry_space_group_name_H-M   'P 1'
_cell_length_a   5.96946236
_cell_length_b   5.96947584
_cell_length_c   5.97664161
_cell_angle_alpha   119.96008573
_cell_angle_beta   119.95989652
_cell_angle_gamma   90.00048408
_symmetry_Int_Tables_number   1
_chemical_formula_structural   Fe
_chemical_formula_sum   Fe4
_cell_volume   150.77739196
_cell_formula_units_Z   4
loop_
 _symmetry_equiv_pos_site_id
 _symmetry_equiv_pos_as_xyz
  1  'x, y, z'
loop_
 _atom_site_type_symbol
 _atom_site_label
 _atom_site_symmetry_multiplicity
 _atom_site_fract_x
 _atom_site_fract_y
 _atom_site_fract_z
 _atom_site_occupancy
  Fe  Fe0  1  0.50000100  0.00000000  0.50000400  1.0
  Fe  Fe1  1  0.99999500  0.99999400  0.49999100  1.0
  Fe  Fe2  1  0.00000300  0.49999500  0.99999900  1.0
  Fe  Fe3  1  0.00000400  0.00000200  0.00000100  1.0
