# generated using pymatgen
data_Fe
_symmetry_space_group_name_H-M   'P 1'
_cell_length_a   5.14967300
_cell_length_b   5.17913293
_cell_length_c   7.96102473
_cell_angle_alpha   71.12525293
_cell_angle_beta   71.53886162
_cell_angle_gamma   79.83580347
_symmetry_Int_Tables_number   1
_chemical_formula_structural   Fe
_chemical_formula_sum   Fe5
_cell_volume   189.92152823
_cell_formula_units_Z   5
loop_
 _symmetry_equiv_pos_site_id
 _symmetry_equiv_pos_as_xyz
  1  'x, y, z'
loop_
 _atom_site_type_symbol
 _atom_site_label
 _atom_site_symmetry_multiplicity
 _atom_site_fract_x
 _atom_site_fract_y
 _atom_site_fract_z
 _atom_site_occupancy
  Fe  Fe0  1  0.09927700  0.99090400  0.31461800  1.0
  Fe  Fe1  1  0.00000000  0.50000000  0.00000000  1.0
  Fe  Fe2  1  0.68944600  0.99773900  0.11078900  1.0
  Fe  Fe3  1  0.31055400  0.00226100  0.88921100  1.0
  Fe  Fe4  1  0.90072300  0.00909600  0.68538200  1.0
