# generated using pymatgen
data_Co
_symmetry_space_group_name_H-M   'P 1'
_cell_length_a   8.43575300
_cell_length_b   9.38006500
_cell_length_c   12.94477400
_cell_angle_alpha   90.00000000
_cell_angle_beta   90.00000000
_cell_angle_gamma   90.00000000
_symmetry_Int_Tables_number   1
_chemical_formula_structural   Co
_chemical_formula_sum   Co12
_cell_volume   1024.29293099
_cell_formula_units_Z   12
loop_
 _symmetry_equiv_pos_site_id
 _symmetry_equiv_pos_as_xyz
  1  'x, y, z'
loop_
 _atom_site_type_symbol
 _atom_site_label
 _atom_site_symmetry_multiplicity
 _atom_site_fract_x
 _atom_site_fract_y
 _atom_site_fract_z
 _atom_site_occupancy
  Co  Co0  1  0.14590100  0.74883400  0.25708500  1.0
  Co  Co1  1  0.14590100  0.75116600  0.75708500  1.0
  Co  Co2  1  0.85409900  0.25116600  0.75708500  1.0
  Co  Co3  1  0.20938200  0.31119900  0.77921900  1.0
  Co  Co4  1  0.79061800  0.68880100  0.27921900  1.0
  Co  Co5  1  0.49924700  0.96234700  0.48390600  1.0
  Co  Co6  1  0.85409900  0.24883400  0.25708500  1.0
  Co  Co7  1  0.20938200  0.18880100  0.27921900  1.0
  Co  Co8  1  0.50075300  0.46234700  0.48390600  1.0
  Co  Co9  1  0.50075300  0.03765300  0.98390600  1.0
  Co  Co10  1  0.79061800  0.81119900  0.77921900  1.0
  Co  Co11  1  0.49924700  0.53765300  0.98390600  1.0
