# generated using pymatgen
data_V
_symmetry_space_group_name_H-M   'P 1'
_cell_length_a   6.01081600
_cell_length_b   6.12122581
_cell_length_c   6.04931000
_cell_angle_alpha   119.61211462
_cell_angle_beta   90.00000001
_cell_angle_gamma   119.40510637
_symmetry_Int_Tables_number   1
_chemical_formula_structural   V
_chemical_formula_sum   V4
_cell_volume   159.69351012
_cell_formula_units_Z   4
loop_
 _symmetry_equiv_pos_site_id
 _symmetry_equiv_pos_as_xyz
  1  'x, y, z'
loop_
 _atom_site_type_symbol
 _atom_site_label
 _atom_site_symmetry_multiplicity
 _atom_site_fract_x
 _atom_site_fract_y
 _atom_site_fract_z
 _atom_site_occupancy
  V  V0  1  0.13245700  0.26491400  0.88245700  1.0
  V  V1  1  0.86754300  0.73508600  0.11754300  1.0
  V  V2  1  0.50000000  1.00000000  1.00000000  1.0
  V  V3  1  0.50000000  0.00000000  0.50000000  1.0
