# generated using pymatgen
data_V
_symmetry_space_group_name_H-M   'P 1'
_cell_length_a   6.07213000
_cell_length_b   6.09334534
_cell_length_c   14.87080717
_cell_angle_alpha   90.85239933
_cell_angle_beta   90.00000000
_cell_angle_gamma   119.88489222
_symmetry_Int_Tables_number   1
_chemical_formula_structural   V
_chemical_formula_sum   V12
_cell_volume   476.98053956
_cell_formula_units_Z   12
loop_
 _symmetry_equiv_pos_site_id
 _symmetry_equiv_pos_as_xyz
  1  'x, y, z'
loop_
 _atom_site_type_symbol
 _atom_site_label
 _atom_site_symmetry_multiplicity
 _atom_site_fract_x
 _atom_site_fract_y
 _atom_site_fract_z
 _atom_site_occupancy
  V  V0  1  0.83008500  0.16241700  0.83298100  1.0
  V  V1  1  0.50375800  0.00751600  0.62270900  1.0
  V  V2  1  0.49980000  0.99960000  0.99784500  1.0
  V  V3  1  0.33233200  0.16241700  0.83298100  1.0
  V  V4  1  0.50042700  0.49993200  0.50050300  1.0
  V  V5  1  0.17100600  0.34201200  0.29110400  1.0
  V  V6  1  0.99950500  0.49993200  0.50050300  1.0
  V  V7  1  0.16656900  0.83441100  0.16665100  1.0
  V  V8  1  0.82788400  0.65576800  0.71204200  1.0
  V  V9  1  0.66784200  0.83441100  0.16665100  1.0
  V  V10  1  0.49564300  0.99128600  0.37687100  1.0
  V  V11  1  0.16472400  0.32944800  0.04103400  1.0
