# generated using pymatgen
data_V
_symmetry_space_group_name_H-M   'P 1'
_cell_length_a   6.06836800
_cell_length_b   6.06836900
_cell_length_c   14.87783900
_cell_angle_alpha   90.00000000
_cell_angle_beta   90.00000000
_cell_angle_gamma   119.99999456
_symmetry_Int_Tables_number   1
_chemical_formula_structural   V
_chemical_formula_sum   V12
_cell_volume   474.47616521
_cell_formula_units_Z   12
loop_
 _symmetry_equiv_pos_site_id
 _symmetry_equiv_pos_as_xyz
  1  'x, y, z'
loop_
 _atom_site_type_symbol
 _atom_site_label
 _atom_site_symmetry_multiplicity
 _atom_site_fract_x
 _atom_site_fract_y
 _atom_site_fract_z
 _atom_site_occupancy
  V  V0  1  0.83528000  0.67056000  0.16657500  1.0
  V  V1  1  0.83528000  0.16472000  0.16657500  1.0
  V  V2  1  0.50114100  0.00228200  0.50006800  1.0
  V  V3  1  0.32944000  0.16472000  0.16657500  1.0
  V  V4  1  0.50114100  0.49886000  0.50006800  1.0
  V  V5  1  0.33333333  0.66666667  0.66543400  1.0
  V  V6  1  0.33333333  0.66666667  0.29064600  1.0
  V  V7  1  0.16734800  0.33469600  0.83260300  1.0
  V  V8  1  0.99771900  0.49886000  0.50006800  1.0
  V  V9  1  0.16734800  0.83265300  0.83260300  1.0
  V  V10  1  0.66530500  0.83265300  0.83260300  1.0
  V  V11  1  0.66666667  0.33333333  0.95793000  1.0
