# generated using pymatgen
data_V
_symmetry_space_group_name_H-M   'P 1'
_cell_length_a   2.95141200
_cell_length_b   5.11461694
_cell_length_c   10.05480400
_cell_angle_alpha   90.00000000
_cell_angle_beta   90.00000000
_cell_angle_gamma   106.76980095
_symmetry_Int_Tables_number   1
_chemical_formula_structural   V
_chemical_formula_sum   V4
_cell_volume   145.32572886
_cell_formula_units_Z   4
loop_
 _symmetry_equiv_pos_site_id
 _symmetry_equiv_pos_as_xyz
  1  'x, y, z'
loop_
 _atom_site_type_symbol
 _atom_site_label
 _atom_site_symmetry_multiplicity
 _atom_site_fract_x
 _atom_site_fract_y
 _atom_site_fract_z
 _atom_site_occupancy
  V  V0  1  0.86754400  0.73508800  0.92810900  1.0
  V  V1  1  0.13245600  0.26491200  0.07189100  1.0
  V  V2  1  0.86754400  0.73508800  0.57189100  1.0
  V  V3  1  0.13245600  0.26491200  0.42810900  1.0
