# generated using pymatgen
data_V
_symmetry_space_group_name_H-M   'P 1'
_cell_length_a   6.06706600
_cell_length_b   6.06706662
_cell_length_c   14.91240400
_cell_angle_alpha   90.00000000
_cell_angle_beta   90.00000000
_cell_angle_gamma   119.99999661
_symmetry_Int_Tables_number   1
_chemical_formula_structural   V
_chemical_formula_sum   V12
_cell_volume   475.37440021
_cell_formula_units_Z   12
loop_
 _symmetry_equiv_pos_site_id
 _symmetry_equiv_pos_as_xyz
  1  'x, y, z'
loop_
 _atom_site_type_symbol
 _atom_site_label
 _atom_site_symmetry_multiplicity
 _atom_site_fract_x
 _atom_site_fract_y
 _atom_site_fract_z
 _atom_site_occupancy
  V  V0  1  0.16550800  0.33101600  0.83295400  1.0
  V  V1  1  0.66898500  0.83449300  0.83295400  1.0
  V  V2  1  0.49977900  0.99955800  0.50055800  1.0
  V  V3  1  0.16550800  0.83449300  0.83295400  1.0
  V  V4  1  0.33333333  0.66666667  0.66687700  1.0
  V  V5  1  0.00044100  0.50022000  0.50055800  1.0
  V  V6  1  0.83258700  0.66517400  0.16701400  1.0
  V  V7  1  0.49977900  0.50022000  0.50055800  1.0
  V  V8  1  0.83258700  0.16741300  0.16701400  1.0
  V  V9  1  0.66666667  0.33333333  0.33457100  1.0
  V  V10  1  0.33482600  0.16741300  0.16701400  1.0
  V  V11  1  0.33333333  0.66666667  0.04149700  1.0
