# generated using pymatgen
data_V
_symmetry_space_group_name_H-M   'P 1'
_cell_length_a   6.05740345
_cell_length_b   6.05897381
_cell_length_c   6.06459287
_cell_angle_alpha   60.24035483
_cell_angle_beta   60.22493937
_cell_angle_gamma   60.26654769
_symmetry_Int_Tables_number   1
_chemical_formula_structural   V
_chemical_formula_sum   V4
_cell_volume   158.25732871
_cell_formula_units_Z   4
loop_
 _symmetry_equiv_pos_site_id
 _symmetry_equiv_pos_as_xyz
  1  'x, y, z'
loop_
 _atom_site_type_symbol
 _atom_site_label
 _atom_site_symmetry_multiplicity
 _atom_site_fract_x
 _atom_site_fract_y
 _atom_site_fract_z
 _atom_site_occupancy
  V  V0  1  0.24847600  0.24715850  0.24682000  1.0
  V  V1  1  0.62702700  0.12019300  0.62579650  1.0
  V  V2  1  0.11813300  0.62741900  0.62743600  1.0
  V  V3  1  0.62692800  0.62591850  0.12032600  1.0
