# generated using pymatgen
data_V
_symmetry_space_group_name_H-M   'P 1'
_cell_length_a   2.97277200
_cell_length_b   9.26554400
_cell_length_c   10.50269600
_cell_angle_alpha   90.00000000
_cell_angle_beta   90.00000000
_cell_angle_gamma   90.00000000
_symmetry_Int_Tables_number   1
_chemical_formula_structural   V
_chemical_formula_sum   V8
_cell_volume   289.28993213
_cell_formula_units_Z   8
loop_
 _symmetry_equiv_pos_site_id
 _symmetry_equiv_pos_as_xyz
  1  'x, y, z'
loop_
 _atom_site_type_symbol
 _atom_site_label
 _atom_site_symmetry_multiplicity
 _atom_site_fract_x
 _atom_site_fract_y
 _atom_site_fract_z
 _atom_site_occupancy
  V  V0  1  0.25000000  0.43697000  0.37918500  1.0
  V  V1  1  0.75000000  0.56303000  0.62081500  1.0
  V  V2  1  0.25000000  0.93697000  0.12081500  1.0
  V  V3  1  0.75000000  0.06303000  0.87918500  1.0
  V  V4  1  0.25000000  0.40772200  0.89745600  1.0
  V  V5  1  0.75000000  0.59227800  0.10254400  1.0
  V  V6  1  0.25000000  0.90772200  0.60254400  1.0
  V  V7  1  0.75000000  0.09227800  0.39745600  1.0
