# generated using pymatgen
data_Pb
_symmetry_space_group_name_H-M   'P 1'
_cell_length_a   10.43567000
_cell_length_b   10.43567058
_cell_length_c   10.89919500
_cell_angle_alpha   90.00000000
_cell_angle_beta   90.00000000
_cell_angle_gamma   119.99999815
_symmetry_Int_Tables_number   1
_chemical_formula_structural   Pb
_chemical_formula_sum   Pb15
_cell_volume   1027.93525434
_cell_formula_units_Z   15
loop_
 _symmetry_equiv_pos_site_id
 _symmetry_equiv_pos_as_xyz
  1  'x, y, z'
loop_
 _atom_site_type_symbol
 _atom_site_label
 _atom_site_symmetry_multiplicity
 _atom_site_fract_x
 _atom_site_fract_y
 _atom_site_fract_z
 _atom_site_occupancy
  Pb  Pb0  1  0.26230700  0.00202200  0.47833200  1.0
  Pb  Pb1  1  0.25966900  0.26305500  0.18360500  1.0
  Pb  Pb2  1  0.33333333  0.66666667  0.67909500  1.0
  Pb  Pb3  1  0.99721800  0.72585300  0.81500200  1.0
  Pb  Pb4  1  0.72863500  0.00278200  0.81500200  1.0
  Pb  Pb5  1  0.73694500  0.99661400  0.18360500  1.0
  Pb  Pb6  1  0.73971500  0.73769300  0.47833200  1.0
  Pb  Pb7  1  0.66666667  0.33333333  0.99834000  1.0
  Pb  Pb8  1  0.66666667  0.33333333  0.33656000  1.0
  Pb  Pb9  1  0.99797800  0.26028500  0.47833200  1.0
  Pb  Pb10  1  0.66666667  0.33333333  0.65949600  1.0
  Pb  Pb11  1  0.33333333  0.66666667  0.99969000  1.0
  Pb  Pb12  1  0.00338600  0.74033100  0.18360500  1.0
  Pb  Pb13  1  0.27414700  0.27136500  0.81500200  1.0
  Pb  Pb14  1  0.33333333  0.66666667  0.32542000  1.0
