# generated using pymatgen
data_Cu
_symmetry_space_group_name_H-M   'P 1'
_cell_length_a   7.80054600
_cell_length_b   8.57196200
_cell_length_c   8.63163250
_cell_angle_alpha   90.00000000
_cell_angle_beta   98.42541771
_cell_angle_gamma   90.00000000
_symmetry_Int_Tables_number   1
_chemical_formula_structural   Cu
_chemical_formula_sum   Cu8
_cell_volume   570.93353157
_cell_formula_units_Z   8
loop_
 _symmetry_equiv_pos_site_id
 _symmetry_equiv_pos_as_xyz
  1  'x, y, z'
loop_
 _atom_site_type_symbol
 _atom_site_label
 _atom_site_symmetry_multiplicity
 _atom_site_fract_x
 _atom_site_fract_y
 _atom_site_fract_z
 _atom_site_occupancy
  Cu  Cu0  1  0.47256800  0.20345500  0.02549900  1.0
  Cu  Cu1  1  0.40846300  0.59981700  0.61654400  1.0
  Cu  Cu2  1  0.59153700  0.40018300  0.38345600  1.0
  Cu  Cu3  1  0.09153700  0.09981700  0.88345600  1.0
  Cu  Cu4  1  0.52743200  0.79654500  0.97450100  1.0
  Cu  Cu5  1  0.90846300  0.90018300  0.11654400  1.0
  Cu  Cu6  1  0.02743200  0.70345500  0.47450100  1.0
  Cu  Cu7  1  0.97256800  0.29654500  0.52549900  1.0
