# generated using pymatgen
data_Cu
_symmetry_space_group_name_H-M   'P 1'
_cell_length_a   6.03593800
_cell_length_b   7.26511200
_cell_length_c   12.36079800
_cell_angle_alpha   90.00000000
_cell_angle_beta   90.00000000
_cell_angle_gamma   90.00000000
_symmetry_Int_Tables_number   1
_chemical_formula_structural   Cu
_chemical_formula_sum   Cu8
_cell_volume   542.04281646
_cell_formula_units_Z   8
loop_
 _symmetry_equiv_pos_site_id
 _symmetry_equiv_pos_as_xyz
  1  'x, y, z'
loop_
 _atom_site_type_symbol
 _atom_site_label
 _atom_site_symmetry_multiplicity
 _atom_site_fract_x
 _atom_site_fract_y
 _atom_site_fract_z
 _atom_site_occupancy
  Cu  Cu0  1  0.84579800  0.42496600  0.59368600  1.0
  Cu  Cu1  1  0.34579800  0.57503400  0.90631400  1.0
  Cu  Cu2  1  0.65420200  0.92496600  0.40631400  1.0
  Cu  Cu3  1  0.15420200  0.07503400  0.09368600  1.0
  Cu  Cu4  1  0.15420200  0.57503400  0.40631400  1.0
  Cu  Cu5  1  0.65420200  0.42496600  0.09368600  1.0
  Cu  Cu6  1  0.34579800  0.07503400  0.59368600  1.0
  Cu  Cu7  1  0.84579800  0.92496600  0.90631400  1.0
