# generated using pymatgen
data_Ni
_symmetry_space_group_name_H-M   'P 1'
_cell_length_a   5.42364995
_cell_length_b   5.42362619
_cell_length_c   5.43389340
_cell_angle_alpha   61.15202866
_cell_angle_beta   61.30160463
_cell_angle_gamma   61.62660884
_symmetry_Int_Tables_number   1
_chemical_formula_structural   Ni
_chemical_formula_sum   Ni2
_cell_volume   116.47584550
_cell_formula_units_Z   2
loop_
 _symmetry_equiv_pos_site_id
 _symmetry_equiv_pos_as_xyz
  1  'x, y, z'
loop_
 _atom_site_type_symbol
 _atom_site_label
 _atom_site_symmetry_multiplicity
 _atom_site_fract_x
 _atom_site_fract_y
 _atom_site_fract_z
 _atom_site_occupancy
  Ni  Ni0  1  0.50001900  0.49995800  0.50000550  1.0
  Ni  Ni1  1  0.99994800  0.00003900  0.00002650  1.0
