# generated using pymatgen
data_Nb
_symmetry_space_group_name_H-M   'P 1'
_cell_length_a   7.90732000
_cell_length_b   7.95266300
_cell_length_c   15.94020100
_cell_angle_alpha   90.00000000
_cell_angle_beta   90.00000000
_cell_angle_gamma   90.00000000
_symmetry_Int_Tables_number   1
_chemical_formula_structural   Nb
_chemical_formula_sum   Nb16
_cell_volume   1002.38760375
_cell_formula_units_Z   16
loop_
 _symmetry_equiv_pos_site_id
 _symmetry_equiv_pos_as_xyz
  1  'x, y, z'
loop_
 _atom_site_type_symbol
 _atom_site_label
 _atom_site_symmetry_multiplicity
 _atom_site_fract_x
 _atom_site_fract_y
 _atom_site_fract_z
 _atom_site_occupancy
  Nb  Nb0  1  0.25000000  0.25000000  0.00000000  1.0
  Nb  Nb1  1  0.75000000  0.25000000  0.00000000  1.0
  Nb  Nb2  1  0.25000000  0.75000000  0.00000000  1.0
  Nb  Nb3  1  0.75000000  0.75000000  0.00000000  1.0
  Nb  Nb4  1  0.24976400  0.24855800  0.75019000  1.0
  Nb  Nb5  1  0.75023600  0.24855800  0.75019000  1.0
  Nb  Nb6  1  0.24976400  0.75144200  0.75019000  1.0
  Nb  Nb7  1  0.75023600  0.75144200  0.75019000  1.0
  Nb  Nb8  1  0.25023600  0.25144200  0.24981000  1.0
  Nb  Nb9  1  0.74976400  0.25144200  0.24981000  1.0
  Nb  Nb10  1  0.25023600  0.74855800  0.24981000  1.0
  Nb  Nb11  1  0.74976400  0.74855800  0.24981000  1.0
  Nb  Nb12  1  0.25000000  0.25000000  0.50000000  1.0
  Nb  Nb13  1  0.75000000  0.25000000  0.50000000  1.0
  Nb  Nb14  1  0.25000000  0.75000000  0.50000000  1.0
  Nb  Nb15  1  0.75000000  0.75000000  0.50000000  1.0
