# generated using pymatgen
data_Nb
_symmetry_space_group_name_H-M   'P 1'
_cell_length_a   4.04094934
_cell_length_b   4.04094934
_cell_length_c   15.95675700
_cell_angle_alpha   90.00000000
_cell_angle_beta   90.00000000
_cell_angle_gamma   89.52855987
_symmetry_Int_Tables_number   1
_chemical_formula_structural   Nb
_chemical_formula_sum   Nb4
_cell_volume   260.55339803
_cell_formula_units_Z   4
loop_
 _symmetry_equiv_pos_site_id
 _symmetry_equiv_pos_as_xyz
  1  'x, y, z'
loop_
 _atom_site_type_symbol
 _atom_site_label
 _atom_site_symmetry_multiplicity
 _atom_site_fract_x
 _atom_site_fract_y
 _atom_site_fract_z
 _atom_site_occupancy
  Nb  Nb0  1  0.02529300  0.02529300  0.12515700  1.0
  Nb  Nb1  1  0.02529300  0.02529300  0.37484300  1.0
  Nb  Nb2  1  0.97470700  0.97470700  0.87484300  1.0
  Nb  Nb3  1  0.97470700  0.97470700  0.62515700  1.0
