# generated using pymatgen
data_Nb
_symmetry_space_group_name_H-M   'P 1'
_cell_length_a   7.93582600
_cell_length_b   7.94730500
_cell_length_c   23.77232700
_cell_angle_alpha   90.00000000
_cell_angle_beta   90.00000000
_cell_angle_gamma   90.00000000
_symmetry_Int_Tables_number   1
_chemical_formula_structural   Nb
_chemical_formula_sum   Nb24
_cell_volume   1499.28333299
_cell_formula_units_Z   24
loop_
 _symmetry_equiv_pos_site_id
 _symmetry_equiv_pos_as_xyz
  1  'x, y, z'
loop_
 _atom_site_type_symbol
 _atom_site_label
 _atom_site_symmetry_multiplicity
 _atom_site_fract_x
 _atom_site_fract_y
 _atom_site_fract_z
 _atom_site_occupancy
  Nb  Nb0  1  0.00000000  0.25000000  0.25000000  1.0
  Nb  Nb1  1  0.00000000  0.75000000  0.25000000  1.0
  Nb  Nb2  1  0.00000000  0.25000000  0.75000000  1.0
  Nb  Nb3  1  0.00000000  0.75000000  0.75000000  1.0
  Nb  Nb4  1  0.50000000  0.25000000  0.25000000  1.0
  Nb  Nb5  1  0.50000000  0.75000000  0.25000000  1.0
  Nb  Nb6  1  0.50000000  0.25000000  0.75000000  1.0
  Nb  Nb7  1  0.50000000  0.75000000  0.75000000  1.0
  Nb  Nb8  1  0.99884300  0.24975500  0.41657900  1.0
  Nb  Nb9  1  0.99884300  0.75024500  0.41657900  1.0
  Nb  Nb10  1  0.99884300  0.24975500  0.58342100  1.0
  Nb  Nb11  1  0.99884300  0.75024500  0.58342100  1.0
  Nb  Nb12  1  0.00115700  0.25024500  0.08342100  1.0
  Nb  Nb13  1  0.00115700  0.74975500  0.08342100  1.0
  Nb  Nb14  1  0.00115700  0.25024500  0.91657900  1.0
  Nb  Nb15  1  0.00115700  0.74975500  0.91657900  1.0
  Nb  Nb16  1  0.49916500  0.25042800  0.41700300  1.0
  Nb  Nb17  1  0.49916500  0.74957200  0.41700300  1.0
  Nb  Nb18  1  0.49916500  0.25042800  0.58299700  1.0
  Nb  Nb19  1  0.49916500  0.74957200  0.58299700  1.0
  Nb  Nb20  1  0.50083500  0.24957200  0.08299700  1.0
  Nb  Nb21  1  0.50083500  0.75042800  0.08299700  1.0
  Nb  Nb22  1  0.50083500  0.24957200  0.91700300  1.0
  Nb  Nb23  1  0.50083500  0.75042800  0.91700300  1.0
