# generated using pymatgen
data_Nb
_symmetry_space_group_name_H-M   'P 1'
_cell_length_a   5.61367700
_cell_length_b   5.65392400
_cell_length_c   23.80524200
_cell_angle_alpha   90.00000000
_cell_angle_beta   90.00000000
_cell_angle_gamma   90.00000000
_symmetry_Int_Tables_number   1
_chemical_formula_structural   Nb
_chemical_formula_sum   Nb12
_cell_volume   755.56179165
_cell_formula_units_Z   12
loop_
 _symmetry_equiv_pos_site_id
 _symmetry_equiv_pos_as_xyz
  1  'x, y, z'
loop_
 _atom_site_type_symbol
 _atom_site_label
 _atom_site_symmetry_multiplicity
 _atom_site_fract_x
 _atom_site_fract_y
 _atom_site_fract_z
 _atom_site_occupancy
  Nb  Nb0  1  0.00000000  0.50000000  0.00000000  1.0
  Nb  Nb1  1  0.50000000  0.00000000  0.50000000  1.0
  Nb  Nb2  1  0.00000000  0.50000000  0.50000000  1.0
  Nb  Nb3  1  0.50000000  0.00000000  0.00000000  1.0
  Nb  Nb4  1  0.00587500  0.52188600  0.33326100  1.0
  Nb  Nb5  1  0.49412500  0.02188600  0.16673900  1.0
  Nb  Nb6  1  0.99412500  0.47811400  0.83326100  1.0
  Nb  Nb7  1  0.50587500  0.97811400  0.66673900  1.0
  Nb  Nb8  1  0.99412500  0.47811400  0.66673900  1.0
  Nb  Nb9  1  0.50587500  0.97811400  0.83326100  1.0
  Nb  Nb10  1  0.00587500  0.52188600  0.16673900  1.0
  Nb  Nb11  1  0.49412500  0.02188600  0.33326100  1.0
