# generated using pymatgen
data_Nb
_symmetry_space_group_name_H-M   'P 1'
_cell_length_a   5.63061400
_cell_length_b   5.64571200
_cell_length_c   47.84336800
_cell_angle_alpha   90.00000000
_cell_angle_beta   90.00000000
_cell_angle_gamma   90.00000000
_symmetry_Int_Tables_number   1
_chemical_formula_structural   Nb
_chemical_formula_sum   Nb24
_cell_volume   1520.88445406
_cell_formula_units_Z   24
loop_
 _symmetry_equiv_pos_site_id
 _symmetry_equiv_pos_as_xyz
  1  'x, y, z'
loop_
 _atom_site_type_symbol
 _atom_site_label
 _atom_site_symmetry_multiplicity
 _atom_site_fract_x
 _atom_site_fract_y
 _atom_site_fract_z
 _atom_site_occupancy
  Nb  Nb0  1  0.50000000  0.50000000  0.00000000  1.0
  Nb  Nb1  1  0.00000000  0.00000000  0.50000000  1.0
  Nb  Nb2  1  0.50000000  0.50000000  0.50000000  1.0
  Nb  Nb3  1  0.00000000  0.00000000  0.00000000  1.0
  Nb  Nb4  1  0.50290400  0.47923600  0.08330000  1.0
  Nb  Nb5  1  0.99709600  0.97923600  0.41670000  1.0
  Nb  Nb6  1  0.49709600  0.52076400  0.58330000  1.0
  Nb  Nb7  1  0.00290400  0.02076400  0.91670000  1.0
  Nb  Nb8  1  0.49709600  0.52076400  0.91670000  1.0
  Nb  Nb9  1  0.00290400  0.02076400  0.58330000  1.0
  Nb  Nb10  1  0.50290400  0.47923600  0.41670000  1.0
  Nb  Nb11  1  0.99709600  0.97923600  0.08330000  1.0
  Nb  Nb12  1  0.49270800  0.47631800  0.16655700  1.0
  Nb  Nb13  1  0.00729200  0.97631800  0.33344300  1.0
  Nb  Nb14  1  0.50729200  0.52368200  0.66655700  1.0
  Nb  Nb15  1  0.99270800  0.02368200  0.83344300  1.0
  Nb  Nb16  1  0.50729200  0.52368200  0.83344300  1.0
  Nb  Nb17  1  0.99270800  0.02368200  0.66655700  1.0
  Nb  Nb18  1  0.49270800  0.47631800  0.33344300  1.0
  Nb  Nb19  1  0.00729200  0.97631800  0.16655700  1.0
  Nb  Nb20  1  0.49326200  0.47554000  0.25000000  1.0
  Nb  Nb21  1  0.00673800  0.97554000  0.25000000  1.0
  Nb  Nb22  1  0.50673800  0.52446000  0.75000000  1.0
  Nb  Nb23  1  0.99326200  0.02446000  0.75000000  1.0
