# generated using pymatgen
data_FeCu
_symmetry_space_group_name_H-M   'P 1'
_cell_length_a   3.06315384
_cell_length_b   3.07091400
_cell_length_c   6.01591215
_cell_angle_alpha   75.28221311
_cell_angle_beta   75.25084757
_cell_angle_gamma   60.08355880
_symmetry_Int_Tables_number   1
_chemical_formula_structural   FeCu
_chemical_formula_sum   'Fe1 Cu1'
_cell_volume   46.88482688
_cell_formula_units_Z   1
loop_
 _symmetry_equiv_pos_site_id
 _symmetry_equiv_pos_as_xyz
  1  'x, y, z'
loop_
 _atom_site_type_symbol
 _atom_site_label
 _atom_site_symmetry_multiplicity
 _atom_site_fract_x
 _atom_site_fract_y
 _atom_site_fract_z
 _atom_site_occupancy
  Cu  Cu0  1  0.00000000  0.00000000  0.00000000  1.0
  Fe  Fe1  1  0.50000000  0.50000000  0.50000000  1.0
