# generated using pymatgen
data_Cr2Ni
_symmetry_space_group_name_H-M   'P 1'
_cell_length_a   5.96666450
_cell_length_b   5.97098394
_cell_length_c   5.97375323
_cell_angle_alpha   90.07965713
_cell_angle_beta   119.51454257
_cell_angle_gamma   119.66000132
_symmetry_Int_Tables_number   1
_chemical_formula_structural   Cr2Ni
_chemical_formula_sum   'Cr4 Ni2'
_cell_volume   152.24770506
_cell_formula_units_Z   2
loop_
 _symmetry_equiv_pos_site_id
 _symmetry_equiv_pos_as_xyz
  1  'x, y, z'
loop_
 _atom_site_type_symbol
 _atom_site_label
 _atom_site_symmetry_multiplicity
 _atom_site_fract_x
 _atom_site_fract_y
 _atom_site_fract_z
 _atom_site_occupancy
  Cr  Cr0  1  0.99925000  0.99941700  0.49899800  1.0
  Cr  Cr1  1  0.50067300  0.50076400  0.49981500  1.0
  Cr  Cr2  1  0.49889500  0.99991200  0.49898900  1.0
  Cr  Cr3  1  0.00065900  0.00006600  0.00084200  1.0
  Ni  Ni4  1  0.74908800  0.37415600  0.11998900  1.0
  Ni  Ni5  1  0.24885200  0.62081200  0.87555400  1.0
