# generated using pymatgen
data_V
_symmetry_space_group_name_H-M   'P 1'
_cell_length_a   6.06009600
_cell_length_b   6.06009679
_cell_length_c   14.84882200
_cell_angle_alpha   90.00000000
_cell_angle_beta   90.00000000
_cell_angle_gamma   119.99999567
_symmetry_Int_Tables_number   1
_chemical_formula_structural   V
_chemical_formula_sum   V12
_cell_volume   472.26060191
_cell_formula_units_Z   12
loop_
 _symmetry_equiv_pos_site_id
 _symmetry_equiv_pos_as_xyz
  1  'x, y, z'
loop_
 _atom_site_type_symbol
 _atom_site_label
 _atom_site_symmetry_multiplicity
 _atom_site_fract_x
 _atom_site_fract_y
 _atom_site_fract_z
 _atom_site_occupancy
  V  V0  1  0.83579800  0.67159600  0.16645500  1.0
  V  V1  1  0.83579800  0.16420200  0.16645500  1.0
  V  V2  1  0.50163200  0.00326400  0.49952700  1.0
  V  V3  1  0.32840400  0.16420200  0.16645500  1.0
  V  V4  1  0.50163200  0.49836700  0.49952700  1.0
  V  V5  1  0.33333333  0.66666667  0.66446300  1.0
  V  V6  1  0.33333333  0.66666667  0.28923200  1.0
  V  V7  1  0.16753100  0.33506200  0.83302400  1.0
  V  V8  1  0.99673500  0.49836700  0.49952700  1.0
  V  V9  1  0.16753100  0.83246800  0.83302400  1.0
  V  V10  1  0.66493700  0.83246800  0.83302400  1.0
  V  V11  1  0.66666667  0.33333333  0.95668100  1.0
