# generated using pymatgen
data_V
_symmetry_space_group_name_H-M   'P 1'
_cell_length_a   2.96438400
_cell_length_b   9.16955400
_cell_length_c   10.55983400
_cell_angle_alpha   90.00000000
_cell_angle_beta   90.00000000
_cell_angle_gamma   90.00000000
_symmetry_Int_Tables_number   1
_chemical_formula_structural   V
_chemical_formula_sum   V8
_cell_volume   287.03824375
_cell_formula_units_Z   8
loop_
 _symmetry_equiv_pos_site_id
 _symmetry_equiv_pos_as_xyz
  1  'x, y, z'
loop_
 _atom_site_type_symbol
 _atom_site_label
 _atom_site_symmetry_multiplicity
 _atom_site_fract_x
 _atom_site_fract_y
 _atom_site_fract_z
 _atom_site_occupancy
  V  V0  1  0.25000000  0.91139900  0.10294800  1.0
  V  V1  1  0.75000000  0.58860100  0.60294800  1.0
  V  V2  1  0.25000000  0.41139900  0.39705200  1.0
  V  V3  1  0.75000000  0.08860100  0.89705200  1.0
  V  V4  1  0.75000000  0.06411600  0.38202600  1.0
  V  V5  1  0.25000000  0.93588400  0.61797400  1.0
  V  V6  1  0.75000000  0.56411600  0.11797400  1.0
  V  V7  1  0.25000000  0.43588400  0.88202600  1.0
