# generated using pymatgen
data_V
_symmetry_space_group_name_H-M   'P 1'
_cell_length_a   6.03078275
_cell_length_b   6.03484040
_cell_length_c   6.03612890
_cell_angle_alpha   119.70842795
_cell_angle_beta   119.85121612
_cell_angle_gamma   90.33056356
_symmetry_Int_Tables_number   1
_chemical_formula_structural   V
_chemical_formula_sum   V4
_cell_volume   155.92285773
_cell_formula_units_Z   4
loop_
 _symmetry_equiv_pos_site_id
 _symmetry_equiv_pos_as_xyz
  1  'x, y, z'
loop_
 _atom_site_type_symbol
 _atom_site_label
 _atom_site_symmetry_multiplicity
 _atom_site_fract_x
 _atom_site_fract_y
 _atom_site_fract_z
 _atom_site_occupancy
  V  V0  1  0.37495600  0.62496800  0.74996900  1.0
  V  V1  1  0.99563000  0.99535100  0.00091700  1.0
  V  V2  1  0.75436200  0.25464900  0.49907700  1.0
  V  V3  1  0.87500900  0.62501500  0.25001400  1.0
