# generated using pymatgen
data_V
_symmetry_space_group_name_H-M   'P 1'
_cell_length_a   6.05390174
_cell_length_b   6.05390174
_cell_length_c   20.03359719
_cell_angle_alpha   90.05441050
_cell_angle_beta   98.67207914
_cell_angle_gamma   119.86107035
_symmetry_Int_Tables_number   1
_chemical_formula_structural   V
_chemical_formula_sum   V16
_cell_volume   626.98724406
_cell_formula_units_Z   16
loop_
 _symmetry_equiv_pos_site_id
 _symmetry_equiv_pos_as_xyz
  1  'x, y, z'
loop_
 _atom_site_type_symbol
 _atom_site_label
 _atom_site_symmetry_multiplicity
 _atom_site_fract_x
 _atom_site_fract_y
 _atom_site_fract_z
 _atom_site_occupancy
  V  V0  1  0.24797600  0.36962100  0.12511800  1.0
  V  V1  1  0.50341900  0.74879800  0.25221700  1.0
  V  V2  1  0.75549700  0.87714200  0.12511800  1.0
  V  V3  1  0.68595600  0.84712300  0.53307900  1.0
  V  V4  1  0.74837500  0.12253800  0.37496600  1.0
  V  V5  1  0.81591700  0.40312400  0.21904100  1.0
  V  V6  1  0.18456700  0.59733900  0.78190600  1.0
  V  V7  1  0.25242800  0.62659100  0.37496600  1.0
  V  V8  1  0.24987300  0.87511000  0.62447900  1.0
  V  V9  1  0.31495100  0.15140900  0.46636000  1.0
  V  V10  1  0.74936900  0.37460600  0.62447900  1.0
  V  V11  1  0.25236600  0.12546300  0.87462600  1.0
  V  V12  1  0.74916300  0.62226000  0.87462600  1.0
  V  V13  1  0.81411500  0.90292500  0.71704000  1.0
  V  V14  1  0.00140900  0.00077800  0.00218700  1.0
  V  V15  1  0.31596200  0.65374600  0.96970800  1.0
