# generated using pymatgen
data_V
_symmetry_space_group_name_H-M   'P 1'
_cell_length_a   6.04518388
_cell_length_b   6.05060123
_cell_length_c   6.05382765
_cell_angle_alpha   119.93906849
_cell_angle_beta   119.89779724
_cell_angle_gamma   90.07130789
_symmetry_Int_Tables_number   1
_chemical_formula_structural   V
_chemical_formula_sum   V4
_cell_volume   156.86352514
_cell_formula_units_Z   4
loop_
 _symmetry_equiv_pos_site_id
 _symmetry_equiv_pos_as_xyz
  1  'x, y, z'
loop_
 _atom_site_type_symbol
 _atom_site_label
 _atom_site_symmetry_multiplicity
 _atom_site_fract_x
 _atom_site_fract_y
 _atom_site_fract_z
 _atom_site_occupancy
  V  V0  1  0.88029700  0.62789650  0.25332350  1.0
  V  V1  1  0.37500500  0.62911550  0.74980950  1.0
  V  V2  1  0.37281650  0.62762650  0.25293750  1.0
  V  V3  1  0.75276500  0.25941100  0.50543600  1.0
