# generated using pymatgen
data_V
_symmetry_space_group_name_H-M   'P 1'
_cell_length_a   6.06013000
_cell_length_b   6.06013041
_cell_length_c   14.83950800
_cell_angle_alpha   90.00000000
_cell_angle_beta   90.00000000
_cell_angle_gamma   119.99999778
_symmetry_Int_Tables_number   1
_chemical_formula_structural   V
_chemical_formula_sum   V12
_cell_volume   471.96963075
_cell_formula_units_Z   12
loop_
 _symmetry_equiv_pos_site_id
 _symmetry_equiv_pos_as_xyz
  1  'x, y, z'
loop_
 _atom_site_type_symbol
 _atom_site_label
 _atom_site_symmetry_multiplicity
 _atom_site_fract_x
 _atom_site_fract_y
 _atom_site_fract_z
 _atom_site_occupancy
  V  V0  1  0.49817000  0.99634000  0.83342500  1.0
  V  V1  1  0.00366000  0.50183000  0.83342500  1.0
  V  V2  1  0.83274500  0.66549000  0.50091100  1.0
  V  V3  1  0.49817000  0.50183000  0.83342500  1.0
  V  V4  1  0.66666667  0.33333333  0.66758700  1.0
  V  V5  1  0.33451000  0.16725500  0.50091100  1.0
  V  V6  1  0.16569300  0.33138600  0.16651800  1.0
  V  V7  1  0.83274500  0.16725500  0.50091100  1.0
  V  V8  1  0.16569300  0.83430600  0.16651800  1.0
  V  V9  1  0.00000000  0.00000000  0.33445800  1.0
  V  V10  1  0.66861300  0.83430600  0.16651800  1.0
  V  V11  1  0.66666667  0.33333333  0.04224000  1.0
