# generated using pymatgen
data_V
_symmetry_space_group_name_H-M   'P 1'
_cell_length_a   6.04590400
_cell_length_b   6.05262088
_cell_length_c   14.83510556
_cell_angle_alpha   89.67470558
_cell_angle_beta   90.00000000
_cell_angle_gamma   119.96329665
_symmetry_Int_Tables_number   1
_chemical_formula_structural   V
_chemical_formula_sum   V12
_cell_volume   470.30237245
_cell_formula_units_Z   12
loop_
 _symmetry_equiv_pos_site_id
 _symmetry_equiv_pos_as_xyz
  1  'x, y, z'
loop_
 _atom_site_type_symbol
 _atom_site_label
 _atom_site_symmetry_multiplicity
 _atom_site_fract_x
 _atom_site_fract_y
 _atom_site_fract_z
 _atom_site_occupancy
  V  V0  1  0.83603100  0.16410100  0.16699400  1.0
  V  V1  1  0.00278000  0.00556000  0.37762500  1.0
  V  V2  1  0.99855700  0.99711400  0.00310100  1.0
  V  V3  1  0.32807000  0.16410100  0.16699400  1.0
  V  V4  1  0.49964200  0.49687600  0.49977500  1.0
  V  V5  1  0.66860200  0.33720400  0.70906100  1.0
  V  V6  1  0.99723400  0.49687600  0.49977500  1.0
  V  V7  1  0.16676200  0.82769900  0.83306100  1.0
  V  V8  1  0.32733500  0.65467000  0.28974600  1.0
  V  V9  1  0.66093700  0.82769800  0.83306100  1.0
  V  V10  1  0.99379800  0.98759600  0.62416700  1.0
  V  V11  1  0.66231500  0.32463000  0.95989100  1.0
