# generated using pymatgen
data_Nb
_symmetry_space_group_name_H-M   'P 1'
_cell_length_a   5.23145100
_cell_length_b   5.58154810
_cell_length_c   17.45918489
_cell_angle_alpha   87.64801976
_cell_angle_beta   81.39922404
_cell_angle_gamma   62.14214105
_symmetry_Int_Tables_number   1
_chemical_formula_structural   Nb
_chemical_formula_sum   Nb8
_cell_volume   445.40877198
_cell_formula_units_Z   8
loop_
 _symmetry_equiv_pos_site_id
 _symmetry_equiv_pos_as_xyz
  1  'x, y, z'
loop_
 _atom_site_type_symbol
 _atom_site_label
 _atom_site_symmetry_multiplicity
 _atom_site_fract_x
 _atom_site_fract_y
 _atom_site_fract_z
 _atom_site_occupancy
  Nb  Nb0  1  0.02131700  0.96916800  0.99617600  1.0
  Nb  Nb1  1  0.52145500  0.21657500  0.74505700  1.0
  Nb  Nb2  1  0.76113400  0.60280700  0.86842400  1.0
  Nb  Nb3  1  0.02320900  0.45711500  0.49655800  1.0
  Nb  Nb4  1  0.27434500  0.83155600  0.62201400  1.0
  Nb  Nb5  1  0.52208300  0.70822400  0.24695300  1.0
  Nb  Nb6  1  0.77343500  0.08215400  0.37163700  1.0
  Nb  Nb7  1  0.27119900  0.33522900  0.12241100  1.0
