# generated using pymatgen
data_Nb
_symmetry_space_group_name_H-M   'P 1'
_cell_length_a   5.28484769
_cell_length_b   5.28484769
_cell_length_c   5.72653564
_cell_angle_alpha   62.52025032
_cell_angle_beta   62.52025032
_cell_angle_gamma   60.00000380
_symmetry_Int_Tables_number   1
_chemical_formula_structural   Nb
_chemical_formula_sum   Nb2
_cell_volume   117.21291807
_cell_formula_units_Z   2
loop_
 _symmetry_equiv_pos_site_id
 _symmetry_equiv_pos_as_xyz
  1  'x, y, z'
loop_
 _atom_site_type_symbol
 _atom_site_label
 _atom_site_symmetry_multiplicity
 _atom_site_fract_x
 _atom_site_fract_y
 _atom_site_fract_z
 _atom_site_occupancy
  Nb  Nb0  1  0.85560900  0.85560900  0.43317300  1.0
  Nb  Nb1  1  0.14439100  0.14439100  0.56682700  1.0
