# generated using pymatgen
data_Nb
_symmetry_space_group_name_H-M   'P 1'
_cell_length_a   5.23959600
_cell_length_b   5.58410687
_cell_length_c   25.95779793
_cell_angle_alpha   93.00711374
_cell_angle_beta   90.00677852
_cell_angle_gamma   117.91965647
_symmetry_Int_Tables_number   1
_chemical_formula_structural   Nb
_chemical_formula_sum   Nb12
_cell_volume   669.89875441
_cell_formula_units_Z   12
loop_
 _symmetry_equiv_pos_site_id
 _symmetry_equiv_pos_as_xyz
  1  'x, y, z'
loop_
 _atom_site_type_symbol
 _atom_site_label
 _atom_site_symmetry_multiplicity
 _atom_site_fract_x
 _atom_site_fract_y
 _atom_site_fract_z
 _atom_site_occupancy
  Nb  Nb0  1  0.98172400  0.97194800  0.00272800  1.0
  Nb  Nb1  1  0.64844900  0.30120100  0.16992100  1.0
  Nb  Nb2  1  0.32862700  0.64902800  0.08775300  1.0
  Nb  Nb3  1  0.31149200  0.62170800  0.33588200  1.0
  Nb  Nb4  1  0.97719200  0.95583700  0.25211200  1.0
  Nb  Nb5  1  0.97721400  0.95383200  0.50268500  1.0
  Nb  Nb6  1  0.64341300  0.28744200  0.41930400  1.0
  Nb  Nb7  1  0.64380700  0.28722900  0.66935300  1.0
  Nb  Nb8  1  0.30982800  0.62055900  0.58605200  1.0
  Nb  Nb9  1  0.31177800  0.62257200  0.83569400  1.0
  Nb  Nb10  1  0.97674500  0.95436100  0.75261700  1.0
  Nb  Nb11  1  0.64638500  0.29226000  0.91855800  1.0
