# generated using pymatgen
data_Nb
_symmetry_space_group_name_H-M   'P 1'
_cell_length_a   5.22299002
_cell_length_b   5.22299002
_cell_length_c   5.59239885
_cell_angle_alpha   62.16206766
_cell_angle_beta   62.16206766
_cell_angle_gamma   59.99999968
_symmetry_Int_Tables_number   1
_chemical_formula_structural   Nb
_chemical_formula_sum   Nb2
_cell_volume   111.26706331
_cell_formula_units_Z   2
loop_
 _symmetry_equiv_pos_site_id
 _symmetry_equiv_pos_as_xyz
  1  'x, y, z'
loop_
 _atom_site_type_symbol
 _atom_site_label
 _atom_site_symmetry_multiplicity
 _atom_site_fract_x
 _atom_site_fract_y
 _atom_site_fract_z
 _atom_site_occupancy
  Nb  Nb0  1  0.00076900  0.00076900  0.99769300  1.0
  Nb  Nb1  1  0.50076900  0.50076900  0.49769300  1.0
