# generated using pymatgen
data_Mo
_symmetry_space_group_name_H-M   'P 1'
_cell_length_a   3.16298100
_cell_length_b   13.02096500
_cell_length_c   43.47651700
_cell_angle_alpha   90.00000000
_cell_angle_beta   90.00000000
_cell_angle_gamma   90.00000000
_symmetry_Int_Tables_number   1
_chemical_formula_structural   Mo
_chemical_formula_sum   Mo18
_cell_volume   1790.58317413
_cell_formula_units_Z   18
loop_
 _symmetry_equiv_pos_site_id
 _symmetry_equiv_pos_as_xyz
  1  'x, y, z'
loop_
 _atom_site_type_symbol
 _atom_site_label
 _atom_site_symmetry_multiplicity
 _atom_site_fract_x
 _atom_site_fract_y
 _atom_site_fract_z
 _atom_site_occupancy
  Mo  Mo0  1  0.00000000  0.00000000  0.05303300  1.0
  Mo  Mo1  1  0.00000000  0.50000000  0.88318100  1.0
  Mo  Mo2  1  0.50000000  0.50000000  0.94696700  1.0
  Mo  Mo3  1  0.00000000  0.00000000  0.92532600  1.0
  Mo  Mo4  1  0.00000000  0.50000000  0.01078300  1.0
  Mo  Mo5  1  0.50000000  0.50000000  0.81955900  1.0
  Mo  Mo6  1  0.00000000  0.50000000  0.13864500  1.0
  Mo  Mo7  1  0.00000000  0.00000000  0.79693100  1.0
  Mo  Mo8  1  0.00000000  0.00000000  0.18044100  1.0
  Mo  Mo9  1  0.50000000  0.00000000  0.11681900  1.0
  Mo  Mo10  1  0.50000000  0.50000000  0.20306900  1.0
  Mo  Mo11  1  0.50000000  0.00000000  0.98921700  1.0
  Mo  Mo12  1  0.00000000  0.50000000  0.26278900  1.0
  Mo  Mo13  1  0.50000000  0.00000000  0.86135500  1.0
  Mo  Mo14  1  0.50000000  0.50000000  0.07467400  1.0
  Mo  Mo15  1  0.00000000  0.50000000  0.75572000  1.0
  Mo  Mo16  1  0.50000000  0.00000000  0.73721100  1.0
  Mo  Mo17  1  0.50000000  0.00000000  0.24428000  1.0
