# generated using pymatgen
data_Fe
_symmetry_space_group_name_H-M   'P 1'
_cell_length_a   4.97475343
_cell_length_b   4.99971735
_cell_length_c   7.94540137
_cell_angle_alpha   88.65856987
_cell_angle_beta   89.65668529
_cell_angle_gamma   89.60578369
_symmetry_Int_Tables_number   1
_chemical_formula_structural   Fe
_chemical_formula_sum   Fe4
_cell_volume   197.55869522
_cell_formula_units_Z   4
loop_
 _symmetry_equiv_pos_site_id
 _symmetry_equiv_pos_as_xyz
  1  'x, y, z'
loop_
 _atom_site_type_symbol
 _atom_site_label
 _atom_site_symmetry_multiplicity
 _atom_site_fract_x
 _atom_site_fract_y
 _atom_site_fract_z
 _atom_site_occupancy
  Fe  Fe0  1  0.99996765  0.49936223  0.50035118  1.0
  Fe  Fe1  1  0.49959227  0.99959318  0.50030813  1.0
  Fe  Fe2  1  0.50003676  0.00037539  0.00009320  1.0
  Fe  Fe3  1  0.99988751  0.50037240  0.00031452  1.0
