# generated using pymatgen
data_Fe
_symmetry_space_group_name_H-M   'P 1'
_cell_length_a   5.04411600
_cell_length_b   8.66920600
_cell_length_c   9.37697900
_cell_angle_alpha   90.00000000
_cell_angle_beta   90.00000000
_cell_angle_gamma   90.00000000
_symmetry_Int_Tables_number   1
_chemical_formula_structural   Fe
_chemical_formula_sum   Fe8
_cell_volume   410.04104515
_cell_formula_units_Z   8
loop_
 _symmetry_equiv_pos_site_id
 _symmetry_equiv_pos_as_xyz
  1  'x, y, z'
loop_
 _atom_site_type_symbol
 _atom_site_label
 _atom_site_symmetry_multiplicity
 _atom_site_fract_x
 _atom_site_fract_y
 _atom_site_fract_z
 _atom_site_occupancy
  Fe  Fe0  1  0.66776100  0.97086700  0.80131400  1.0
  Fe  Fe1  1  0.33223900  0.02913300  0.30131400  1.0
  Fe  Fe2  1  0.83223900  0.47086700  0.30131400  1.0
  Fe  Fe3  1  0.16776100  0.52913300  0.80131400  1.0
  Fe  Fe4  1  0.18425500  0.85066400  0.58103700  1.0
  Fe  Fe5  1  0.81574500  0.14933600  0.08103700  1.0
  Fe  Fe6  1  0.31574500  0.35066400  0.08103700  1.0
  Fe  Fe7  1  0.68425500  0.64933600  0.58103700  1.0
