# generated using pymatgen
data_Fe
_symmetry_space_group_name_H-M   'P 1'
_cell_length_a   4.98235037
_cell_length_b   5.00152093
_cell_length_c   7.94345649
_cell_angle_alpha   88.96290659
_cell_angle_beta   89.68984125
_cell_angle_gamma   89.76716964
_symmetry_Int_Tables_number   1
_chemical_formula_structural   Fe
_chemical_formula_sum   Fe4
_cell_volume   197.90872823
_cell_formula_units_Z   4
loop_
 _symmetry_equiv_pos_site_id
 _symmetry_equiv_pos_as_xyz
  1  'x, y, z'
loop_
 _atom_site_type_symbol
 _atom_site_label
 _atom_site_symmetry_multiplicity
 _atom_site_fract_x
 _atom_site_fract_y
 _atom_site_fract_z
 _atom_site_occupancy
  Fe  Fe0  1  0.99962600  0.50039200  0.50003200  1.0
  Fe  Fe1  1  0.50011700  0.00016200  0.50009900  1.0
  Fe  Fe2  1  0.49995500  0.99967100  0.00018000  1.0
  Fe  Fe3  1  0.99991800  0.49947600  0.00004700  1.0
