# generated using pymatgen
data_Fe
_symmetry_space_group_name_H-M   'P 1'
_cell_length_a   4.86811200
_cell_length_b   5.12117900
_cell_length_c   7.33976900
_cell_angle_alpha   89.99993521
_cell_angle_beta   89.99996085
_cell_angle_gamma   89.99852011
_symmetry_Int_Tables_number   1
_chemical_formula_structural   Fe
_chemical_formula_sum   Fe4
_cell_volume   182.98391241
_cell_formula_units_Z   4
loop_
 _symmetry_equiv_pos_site_id
 _symmetry_equiv_pos_as_xyz
  1  'x, y, z'
loop_
 _atom_site_type_symbol
 _atom_site_label
 _atom_site_symmetry_multiplicity
 _atom_site_fract_x
 _atom_site_fract_y
 _atom_site_fract_z
 _atom_site_occupancy
  Fe  Fe0  1  0.47628500  0.43692600  0.75000200  1.0
  Fe  Fe1  1  0.52371500  0.56307100  0.24999900  1.0
  Fe  Fe2  1  0.02374100  0.93691800  0.75000300  1.0
  Fe  Fe3  1  0.97626000  0.06307600  0.25000000  1.0
