# generated using pymatgen
data_Co
_symmetry_space_group_name_H-M   'P 1'
_cell_length_a   5.82312800
_cell_length_b   7.73166650
_cell_length_c   7.73166650
_cell_angle_alpha   65.58039012
_cell_angle_beta   67.87821556
_cell_angle_gamma   67.87821555
_symmetry_Int_Tables_number   1
_chemical_formula_structural   Co
_chemical_formula_sum   Co8
_cell_volume   283.37903597
_cell_formula_units_Z   8
loop_
 _symmetry_equiv_pos_site_id
 _symmetry_equiv_pos_as_xyz
  1  'x, y, z'
loop_
 _atom_site_type_symbol
 _atom_site_label
 _atom_site_symmetry_multiplicity
 _atom_site_fract_x
 _atom_site_fract_y
 _atom_site_fract_z
 _atom_site_occupancy
  Co  Co0  1  0.62652800  0.37347200  0.87347200  1.0
  Co  Co1  1  0.87347200  0.62652800  0.12652800  1.0
  Co  Co2  1  0.37347200  0.62652800  0.12652800  1.0
  Co  Co3  1  0.12652800  0.37347200  0.87347200  1.0
  Co  Co4  1  0.75000000  0.22406100  0.27593900  1.0
  Co  Co5  1  0.25000000  0.77593900  0.72406100  1.0
  Co  Co6  1  0.00000000  0.00000000  0.00000000  1.0
  Co  Co7  1  0.50000000  0.50000000  0.50000000  1.0
