# generated using pymatgen
data_Co
_symmetry_space_group_name_H-M   'P 1'
_cell_length_a   4.81870800
_cell_length_b   6.04262733
_cell_length_c   10.41288000
_cell_angle_alpha   90.00000000
_cell_angle_beta   90.00000000
_cell_angle_gamma   89.60812767
_symmetry_Int_Tables_number   1
_chemical_formula_structural   Co
_chemical_formula_sum   Co8
_cell_volume   303.19157313
_cell_formula_units_Z   8
loop_
 _symmetry_equiv_pos_site_id
 _symmetry_equiv_pos_as_xyz
  1  'x, y, z'
loop_
 _atom_site_type_symbol
 _atom_site_label
 _atom_site_symmetry_multiplicity
 _atom_site_fract_x
 _atom_site_fract_y
 _atom_site_fract_z
 _atom_site_occupancy
  Co  Co0  1  0.49418500  0.75077600  0.27494300  1.0
  Co  Co1  1  1.00000000  0.00000000  0.50000000  1.0
  Co  Co2  1  0.99418500  0.25077600  0.22505700  1.0
  Co  Co3  1  0.00581500  0.74922400  0.77494300  1.0
  Co  Co4  1  0.50000000  0.50000000  0.00000000  1.0
  Co  Co5  1  0.50581500  0.24922400  0.72505700  1.0
  Co  Co6  1  0.00000000  0.50000000  0.50000000  1.0
  Co  Co7  1  0.50000000  0.00000000  0.00000000  1.0
