# generated using pymatgen
data_Cu
_symmetry_space_group_name_H-M   'P 1'
_cell_length_a   5.90960600
_cell_length_b   6.45384494
_cell_length_c   5.90960600
_cell_angle_alpha   117.24756093
_cell_angle_beta   89.99999999
_cell_angle_gamma   117.24756094
_symmetry_Int_Tables_number   1
_chemical_formula_structural   Cu
_chemical_formula_sum   Cu8
_cell_volume   171.76651949
_cell_formula_units_Z   8
loop_
 _symmetry_equiv_pos_site_id
 _symmetry_equiv_pos_as_xyz
  1  'x, y, z'
loop_
 _atom_site_type_symbol
 _atom_site_label
 _atom_site_symmetry_multiplicity
 _atom_site_fract_x
 _atom_site_fract_y
 _atom_site_fract_z
 _atom_site_occupancy
  Cu  Cu0  1  0.62500000  0.25000000  0.87500000  1.0
  Cu  Cu1  1  0.12500000  0.75000000  0.37500000  1.0
  Cu  Cu2  1  0.62500000  0.25000000  0.37500000  1.0
  Cu  Cu3  1  0.62500000  0.75000000  0.37500000  1.0
  Cu  Cu4  1  0.62500000  0.75000000  0.87500000  1.0
  Cu  Cu5  1  0.12500000  0.25000000  0.37500000  1.0
  Cu  Cu6  1  0.12500000  0.25000000  0.87500000  1.0
  Cu  Cu7  1  0.12500000  0.75000000  0.87500000  1.0
