# generated using pymatgen
data_Co
_symmetry_space_group_name_H-M   'P 1'
_cell_length_a   4.99414019
_cell_length_b   4.99414019
_cell_length_c   8.62248532
_cell_angle_alpha   73.16600063
_cell_angle_beta   73.16600063
_cell_angle_gamma   59.99999746
_symmetry_Int_Tables_number   1
_chemical_formula_structural   Co
_chemical_formula_sum   Co9
_cell_volume   175.52300374
_cell_formula_units_Z   9
loop_
 _symmetry_equiv_pos_site_id
 _symmetry_equiv_pos_as_xyz
  1  'x, y, z'
loop_
 _atom_site_type_symbol
 _atom_site_label
 _atom_site_symmetry_multiplicity
 _atom_site_fract_x
 _atom_site_fract_y
 _atom_site_fract_z
 _atom_site_occupancy
  Co  Co0  1  0.41783800  0.41783800  0.24308500  1.0
  Co  Co1  1  0.41783800  0.92123900  0.24308500  1.0
  Co  Co2  1  0.92123900  0.41783800  0.24308500  1.0
  Co  Co3  1  0.50000000  0.50000000  0.50000000  1.0
  Co  Co4  1  0.33472500  0.33472500  0.99582500  1.0
  Co  Co5  1  0.66527500  0.66527500  0.00417500  1.0
  Co  Co6  1  0.58216200  0.07876100  0.75691500  1.0
  Co  Co7  1  0.58216200  0.58216200  0.75691500  1.0
  Co  Co8  1  0.07876100  0.58216200  0.75691500  1.0
