# generated using pymatgen
data_Fe
_symmetry_space_group_name_H-M   'P 1'
_cell_length_a   2.97570500
_cell_length_b   4.69376025
_cell_length_c   12.84878800
_cell_angle_alpha   90.00000000
_cell_angle_beta   90.00000000
_cell_angle_gamma   89.88028785
_symmetry_Int_Tables_number   1
_chemical_formula_structural   Fe
_chemical_formula_sum   Fe4
_cell_volume   179.46178908
_cell_formula_units_Z   4
loop_
 _symmetry_equiv_pos_site_id
 _symmetry_equiv_pos_as_xyz
  1  'x, y, z'
loop_
 _atom_site_type_symbol
 _atom_site_label
 _atom_site_symmetry_multiplicity
 _atom_site_fract_x
 _atom_site_fract_y
 _atom_site_fract_z
 _atom_site_occupancy
  Fe  Fe0  1  0.90682300  0.30739600  0.66348900  1.0
  Fe  Fe1  1  0.09317700  0.69260400  0.16348900  1.0
  Fe  Fe2  1  0.59844300  0.23621200  0.33171300  1.0
  Fe  Fe3  1  0.40155700  0.76378800  0.83171300  1.0
