# generated using pymatgen
data_Fe
_symmetry_space_group_name_H-M   'P 1'
_cell_length_a   6.18258886
_cell_length_b   10.54668578
_cell_length_c   10.71790257
_cell_angle_alpha   90.12361217
_cell_angle_beta   89.92112351
_cell_angle_gamma   89.94892668
_symmetry_Int_Tables_number   1
_chemical_formula_structural   Fe
_chemical_formula_sum   Fe16
_cell_volume   698.86707913
_cell_formula_units_Z   16
loop_
 _symmetry_equiv_pos_site_id
 _symmetry_equiv_pos_as_xyz
  1  'x, y, z'
loop_
 _atom_site_type_symbol
 _atom_site_label
 _atom_site_symmetry_multiplicity
 _atom_site_fract_x
 _atom_site_fract_y
 _atom_site_fract_z
 _atom_site_occupancy
  Fe  Fe0  1  0.01200800  0.35150900  0.12422900  1.0
  Fe  Fe1  1  0.00668500  0.14548500  0.62920300  1.0
  Fe  Fe2  1  0.75623700  0.84229500  0.62235100  1.0
  Fe  Fe3  1  0.75814000  0.67221800  0.10844500  1.0
  Fe  Fe4  1  0.99731000  0.65644200  0.81717700  1.0
  Fe  Fe5  1  0.00117300  0.86205700  0.32182000  1.0
  Fe  Fe6  1  0.75400800  0.15954400  0.33788500  1.0
  Fe  Fe7  1  0.75459000  0.35129100  0.82995300  1.0
  Fe  Fe8  1  0.49174500  0.34835000  0.11800700  1.0
  Fe  Fe9  1  0.50711400  0.14468400  0.63018300  1.0
  Fe  Fe10  1  0.25708200  0.84828300  0.61074800  1.0
  Fe  Fe11  1  0.25699100  0.65323000  0.11831500  1.0
  Fe  Fe12  1  0.51638900  0.65747200  0.81973900  1.0
  Fe  Fe13  1  0.50505700  0.86073000  0.32146400  1.0
  Fe  Fe14  1  0.25538200  0.15610400  0.33766600  1.0
  Fe  Fe15  1  0.25466800  0.35970500  0.82935400  1.0
