# generated using pymatgen
data_Fe
_symmetry_space_group_name_H-M   'P 1'
_cell_length_a   6.16233300
_cell_length_b   9.22455535
_cell_length_c   11.34466466
_cell_angle_alpha   84.07353373
_cell_angle_beta   89.91111186
_cell_angle_gamma   89.83694894
_symmetry_Int_Tables_number   1
_chemical_formula_structural   Fe
_chemical_formula_sum   Fe16
_cell_volume   641.43511492
_cell_formula_units_Z   16
loop_
 _symmetry_equiv_pos_site_id
 _symmetry_equiv_pos_as_xyz
  1  'x, y, z'
loop_
 _atom_site_type_symbol
 _atom_site_label
 _atom_site_symmetry_multiplicity
 _atom_site_fract_x
 _atom_site_fract_y
 _atom_site_fract_z
 _atom_site_occupancy
  Fe  Fe0  1  0.01210600  0.31293900  0.11792800  1.0
  Fe  Fe1  1  0.99884500  0.17672800  0.62588500  1.0
  Fe  Fe2  1  0.75092900  0.82674000  0.60930900  1.0
  Fe  Fe3  1  0.75034500  0.69088000  0.12183700  1.0
  Fe  Fe4  1  0.99961000  0.70330400  0.85219600  1.0
  Fe  Fe5  1  0.00956600  0.84142200  0.32883900  1.0
  Fe  Fe6  1  0.75041300  0.21277900  0.35276100  1.0
  Fe  Fe7  1  0.75436500  0.32191800  0.84197600  1.0
  Fe  Fe8  1  0.49241400  0.31163900  0.11637400  1.0
  Fe  Fe9  1  0.50416000  0.19629000  0.62684200  1.0
  Fe  Fe10  1  0.26068900  0.82784600  0.60723300  1.0
  Fe  Fe11  1  0.25868200  0.70572900  0.12544700  1.0
  Fe  Fe12  1  0.50662600  0.70754900  0.83671800  1.0
  Fe  Fe13  1  0.49083200  0.84983800  0.33533100  1.0
  Fe  Fe14  1  0.25803300  0.21648500  0.35353200  1.0
  Fe  Fe15  1  0.25345600  0.35735600  0.83625300  1.0
