# generated using pymatgen
data_Fe
_symmetry_space_group_name_H-M   'P 1'
_cell_length_a   3.05611900
_cell_length_b   4.64196100
_cell_length_c   10.05552300
_cell_angle_alpha   90.00135122
_cell_angle_beta   89.99999431
_cell_angle_gamma   89.99931693
_symmetry_Int_Tables_number   1
_chemical_formula_structural   Fe
_chemical_formula_sum   Fe4
_cell_volume   142.65152271
_cell_formula_units_Z   4
loop_
 _symmetry_equiv_pos_site_id
 _symmetry_equiv_pos_as_xyz
  1  'x, y, z'
loop_
 _atom_site_type_symbol
 _atom_site_label
 _atom_site_symmetry_multiplicity
 _atom_site_fract_x
 _atom_site_fract_y
 _atom_site_fract_z
 _atom_site_occupancy
  Fe  Fe0  1  0.24879200  0.44302200  0.64465100  1.0
  Fe  Fe1  1  0.25118700  0.05697100  0.14464600  1.0
  Fe  Fe2  1  0.74882900  0.55697200  0.35534800  1.0
  Fe  Fe3  1  0.75115400  0.94303600  0.85534900  1.0
