# generated using pymatgen
data_Fe
_symmetry_space_group_name_H-M   'P 1'
_cell_length_a   3.13250729
_cell_length_b   3.94775499
_cell_length_c   6.74068486
_cell_angle_alpha   89.94307897
_cell_angle_beta   77.36739340
_cell_angle_gamma   89.68475616
_symmetry_Int_Tables_number   1
_chemical_formula_structural   Fe
_chemical_formula_sum   Fe2
_cell_volume   81.33869120
_cell_formula_units_Z   2
loop_
 _symmetry_equiv_pos_site_id
 _symmetry_equiv_pos_as_xyz
  1  'x, y, z'
loop_
 _atom_site_type_symbol
 _atom_site_label
 _atom_site_symmetry_multiplicity
 _atom_site_fract_x
 _atom_site_fract_y
 _atom_site_fract_z
 _atom_site_occupancy
  Fe  Fe0  1  0.18514450  0.25005500  0.63734850  1.0
  Fe  Fe1  1  0.81485550  0.74994500  0.36265150  1.0
