# generated using pymatgen
data_Fe
_symmetry_space_group_name_H-M   'P 1'
_cell_length_a   3.07818100
_cell_length_b   7.63866409
_cell_length_c   7.72331716
_cell_angle_alpha   87.00803737
_cell_angle_beta   78.50594715
_cell_angle_gamma   78.37766798
_symmetry_Int_Tables_number   1
_chemical_formula_structural   Fe
_chemical_formula_sum   Fe4
_cell_volume   174.29546907
_cell_formula_units_Z   4
loop_
 _symmetry_equiv_pos_site_id
 _symmetry_equiv_pos_as_xyz
  1  'x, y, z'
loop_
 _atom_site_type_symbol
 _atom_site_label
 _atom_site_symmetry_multiplicity
 _atom_site_fract_x
 _atom_site_fract_y
 _atom_site_fract_z
 _atom_site_occupancy
  Fe  Fe0  1  0.64457300  0.20611900  0.50463500  1.0
  Fe  Fe1  1  0.85142200  0.50187300  0.79525000  1.0
  Fe  Fe2  1  0.35545500  0.79386700  0.49531600  1.0
  Fe  Fe3  1  0.14857100  0.49813300  0.20478200  1.0
