# generated using pymatgen
data_Fe
_symmetry_space_group_name_H-M   'P 1'
_cell_length_a   3.08849600
_cell_length_b   7.74186503
_cell_length_c   7.74186503
_cell_angle_alpha   87.71976196
_cell_angle_beta   78.49419698
_cell_angle_gamma   78.49419697
_symmetry_Int_Tables_number   1
_chemical_formula_structural   Fe
_chemical_formula_sum   Fe4
_cell_volume   177.74841840
_cell_formula_units_Z   4
loop_
 _symmetry_equiv_pos_site_id
 _symmetry_equiv_pos_as_xyz
  1  'x, y, z'
loop_
 _atom_site_type_symbol
 _atom_site_label
 _atom_site_symmetry_multiplicity
 _atom_site_fract_x
 _atom_site_fract_y
 _atom_site_fract_z
 _atom_site_occupancy
  Fe  Fe0  1  0.17869600  0.47811800  0.16449000  1.0
  Fe  Fe1  1  0.82130400  0.52188200  0.83551000  1.0
  Fe  Fe2  1  0.65681400  0.16449000  0.52188200  1.0
  Fe  Fe3  1  0.34318600  0.83551000  0.47811800  1.0
