# generated using pymatgen
data_Fe
_symmetry_space_group_name_H-M   'P 1'
_cell_length_a   3.06492200
_cell_length_b   7.66803816
_cell_length_c   7.66800676
_cell_angle_alpha   87.70996537
_cell_angle_beta   78.46988928
_cell_angle_gamma   78.47130320
_symmetry_Int_Tables_number   1
_chemical_formula_structural   Fe
_chemical_formula_sum   Fe4
_cell_volume   173.01381553
_cell_formula_units_Z   4
loop_
 _symmetry_equiv_pos_site_id
 _symmetry_equiv_pos_as_xyz
  1  'x, y, z'
loop_
 _atom_site_type_symbol
 _atom_site_label
 _atom_site_symmetry_multiplicity
 _atom_site_fract_x
 _atom_site_fract_y
 _atom_site_fract_z
 _atom_site_occupancy
  Fe  Fe0  1  0.85256500  0.79484800  0.50004300  1.0
  Fe  Fe1  1  0.14743600  0.20515300  0.49995600  1.0
  Fe  Fe2  1  0.64740200  0.50004600  0.20515300  1.0
  Fe  Fe3  1  0.35259900  0.49995500  0.79484600  1.0
