# generated using pymatgen
data_Fe
_symmetry_space_group_name_H-M   'P 1'
_cell_length_a   6.11941700
_cell_length_b   10.66591647
_cell_length_c   11.29527155
_cell_angle_alpha   90.07818418
_cell_angle_beta   93.09423486
_cell_angle_gamma   94.85061637
_symmetry_Int_Tables_number   1
_chemical_formula_structural   Fe
_chemical_formula_sum   Fe16
_cell_volume   733.50888439
_cell_formula_units_Z   16
loop_
 _symmetry_equiv_pos_site_id
 _symmetry_equiv_pos_as_xyz
  1  'x, y, z'
loop_
 _atom_site_type_symbol
 _atom_site_label
 _atom_site_symmetry_multiplicity
 _atom_site_fract_x
 _atom_site_fract_y
 _atom_site_fract_z
 _atom_site_occupancy
  Fe  Fe0  1  0.02837800  0.63597700  0.09827500  1.0
  Fe  Fe1  1  0.99379300  0.86030100  0.64695000  1.0
  Fe  Fe2  1  0.28389400  0.14120200  0.57436600  1.0
  Fe  Fe3  1  0.24676200  0.32938300  0.12386600  1.0
  Fe  Fe4  1  0.95281600  0.32202500  0.84015200  1.0
  Fe  Fe5  1  0.97827100  0.13521200  0.30417000  1.0
  Fe  Fe6  1  0.22323400  0.80820200  0.37560900  1.0
  Fe  Fe7  1  0.23318700  0.65597600  0.81990400  1.0
  Fe  Fe8  1  0.51375400  0.67104600  0.09574900  1.0
  Fe  Fe9  1  0.50269000  0.84051100  0.64443700  1.0
  Fe  Fe10  1  0.80854900  0.17442600  0.58617400  1.0
  Fe  Fe11  1  0.73688400  0.29059700  0.12047600  1.0
  Fe  Fe12  1  0.45308700  0.31091100  0.83040600  1.0
  Fe  Fe13  1  0.49487500  0.11966100  0.30282000  1.0
  Fe  Fe14  1  0.70578300  0.80512700  0.35889000  1.0
  Fe  Fe15  1  0.73678300  0.62105600  0.81824100  1.0
