# generated using pymatgen
data_Fe
_symmetry_space_group_name_H-M   'P 1'
_cell_length_a   3.14856600
_cell_length_b   4.91511100
_cell_length_c   9.97776500
_cell_angle_alpha   90.00000000
_cell_angle_beta   90.00000000
_cell_angle_gamma   90.00000000
_symmetry_Int_Tables_number   1
_chemical_formula_structural   Fe
_chemical_formula_sum   Fe4
_cell_volume   154.41141492
_cell_formula_units_Z   4
loop_
 _symmetry_equiv_pos_site_id
 _symmetry_equiv_pos_as_xyz
  1  'x, y, z'
loop_
 _atom_site_type_symbol
 _atom_site_label
 _atom_site_symmetry_multiplicity
 _atom_site_fract_x
 _atom_site_fract_y
 _atom_site_fract_z
 _atom_site_occupancy
  Fe  Fe0  1  0.77910300  0.47048900  0.65366100  1.0
  Fe  Fe1  1  0.77910300  0.02951100  0.15366100  1.0
  Fe  Fe2  1  0.27910300  0.52951100  0.34633900  1.0
  Fe  Fe3  1  0.27910300  0.97048900  0.84633900  1.0
