# generated using pymatgen
data_Fe
_symmetry_space_group_name_H-M   'P 1'
_cell_length_a   3.09328700
_cell_length_b   7.40775347
_cell_length_c   7.87949341
_cell_angle_alpha   89.13405872
_cell_angle_beta   78.84401530
_cell_angle_gamma   78.34994906
_symmetry_Int_Tables_number   1
_chemical_formula_structural   Fe
_chemical_formula_sum   Fe4
_cell_volume   173.43823488
_cell_formula_units_Z   4
loop_
 _symmetry_equiv_pos_site_id
 _symmetry_equiv_pos_as_xyz
  1  'x, y, z'
loop_
 _atom_site_type_symbol
 _atom_site_label
 _atom_site_symmetry_multiplicity
 _atom_site_fract_x
 _atom_site_fract_y
 _atom_site_fract_z
 _atom_site_occupancy
  Fe  Fe0  1  0.82220000  0.52787200  0.80683800  1.0
  Fe  Fe1  1  0.15927400  0.50148000  0.15087100  1.0
  Fe  Fe2  1  0.36969900  0.77627900  0.47319700  1.0
  Fe  Fe3  1  0.63625200  0.18315000  0.53655000  1.0
