# generated using pymatgen
data_Fe
_symmetry_space_group_name_H-M   'P 1'
_cell_length_a   3.07310900
_cell_length_b   4.65158000
_cell_length_c   10.11774700
_cell_angle_alpha   90.00000000
_cell_angle_beta   90.00000000
_cell_angle_gamma   90.00000000
_symmetry_Int_Tables_number   1
_chemical_formula_structural   Fe
_chemical_formula_sum   Fe4
_cell_volume   144.63129489
_cell_formula_units_Z   4
loop_
 _symmetry_equiv_pos_site_id
 _symmetry_equiv_pos_as_xyz
  1  'x, y, z'
loop_
 _atom_site_type_symbol
 _atom_site_label
 _atom_site_symmetry_multiplicity
 _atom_site_fract_x
 _atom_site_fract_y
 _atom_site_fract_z
 _atom_site_occupancy
  Fe  Fe0  1  0.24298600  0.29170300  0.64490600  1.0
  Fe  Fe1  1  0.25701400  0.70829700  0.14490600  1.0
  Fe  Fe2  1  0.74298600  0.20829700  0.35509400  1.0
  Fe  Fe3  1  0.75701400  0.79170300  0.85509400  1.0
