# generated using pymatgen
data_Fe
_symmetry_space_group_name_H-M   'P 1'
_cell_length_a   3.00407200
_cell_length_b   7.25271590
_cell_length_c   7.25271590
_cell_angle_alpha   87.54181125
_cell_angle_beta   78.04755306
_cell_angle_gamma   78.04755308
_symmetry_Int_Tables_number   1
_chemical_formula_structural   Fe
_chemical_formula_sum   Fe4
_cell_volume   151.24233540
_cell_formula_units_Z   4
loop_
 _symmetry_equiv_pos_site_id
 _symmetry_equiv_pos_as_xyz
  1  'x, y, z'
loop_
 _atom_site_type_symbol
 _atom_site_label
 _atom_site_symmetry_multiplicity
 _atom_site_fract_x
 _atom_site_fract_y
 _atom_site_fract_z
 _atom_site_occupancy
  Fe  Fe0  1  0.17073400  0.48471800  0.19937300  1.0
  Fe  Fe1  1  0.85482500  0.51528100  0.80062700  1.0
  Fe  Fe2  1  0.62989400  0.19937300  0.51528100  1.0
  Fe  Fe3  1  0.34454800  0.80062700  0.48471900  1.0
