# generated using pymatgen
data_Fe
_symmetry_space_group_name_H-M   'P 1'
_cell_length_a   3.09552900
_cell_length_b   3.90951790
_cell_length_c   6.19933833
_cell_angle_alpha   89.84647765
_cell_angle_beta   75.54165021
_cell_angle_gamma   90.00063666
_symmetry_Int_Tables_number   1
_chemical_formula_structural   Fe
_chemical_formula_sum   Fe2
_cell_volume   72.64820209
_cell_formula_units_Z   2
loop_
 _symmetry_equiv_pos_site_id
 _symmetry_equiv_pos_as_xyz
  1  'x, y, z'
loop_
 _atom_site_type_symbol
 _atom_site_label
 _atom_site_symmetry_multiplicity
 _atom_site_fract_x
 _atom_site_fract_y
 _atom_site_fract_z
 _atom_site_occupancy
  Fe  Fe0  1  0.32706800  0.74822400  0.34577050  1.0
  Fe  Fe1  1  0.67293450  0.25177200  0.65422550  1.0
