# generated using pymatgen
data_GdRu
_symmetry_space_group_name_H-M   'P 1'
_cell_length_a   5.83412899
_cell_length_b   5.83412899
_cell_length_c   5.91613581
_cell_angle_alpha   90.51966714
_cell_angle_beta   119.41292190
_cell_angle_gamma   119.52474529
_symmetry_Int_Tables_number   1
_chemical_formula_structural   GdRu
_chemical_formula_sum   'Gd1 Ru1'
_cell_volume   144.01633173
_cell_formula_units_Z   1
loop_
 _symmetry_equiv_pos_site_id
 _symmetry_equiv_pos_as_xyz
  1  'x, y, z'
loop_
 _atom_site_type_symbol
 _atom_site_label
 _atom_site_symmetry_multiplicity
 _atom_site_fract_x
 _atom_site_fract_y
 _atom_site_fract_z
 _atom_site_occupancy
  Gd  Gd0  1  0.00000000  0.00000000  0.00000000  1.0
  Ru  Ru1  1  0.00000000  0.50000000  0.50000000  1.0
