# generated using pymatgen
data_Mn2Nb
_symmetry_space_group_name_H-M   'P 1'
_cell_length_a   5.39970600
_cell_length_b   5.73055574
_cell_length_c   13.42083783
_cell_angle_alpha   92.40681269
_cell_angle_beta   90.00000000
_cell_angle_gamma   118.10785678
_symmetry_Int_Tables_number   1
_chemical_formula_structural   Mn2Nb
_chemical_formula_sum   'Mn8 Nb4'
_cell_volume   365.89204969
_cell_formula_units_Z   4
loop_
 _symmetry_equiv_pos_site_id
 _symmetry_equiv_pos_as_xyz
  1  'x, y, z'
loop_
 _atom_site_type_symbol
 _atom_site_label
 _atom_site_symmetry_multiplicity
 _atom_site_fract_x
 _atom_site_fract_y
 _atom_site_fract_z
 _atom_site_occupancy
  Mn  Mn0  1  0.00528400  0.00884500  0.49895100  1.0
  Mn  Mn1  1  0.00356100  0.00884500  0.99895100  1.0
  Mn  Mn2  1  0.04814800  0.08611700  0.73830200  1.0
  Mn  Mn3  1  0.37414200  0.76229800  0.40458000  1.0
  Mn  Mn4  1  0.70674200  0.41431900  0.07403600  1.0
  Mn  Mn5  1  0.03796900  0.08611700  0.23830200  1.0
  Mn  Mn6  1  0.38815600  0.76229800  0.90458000  1.0
  Mn  Mn7  1  0.70757700  0.41431900  0.57403600  1.0
  Nb  Nb8  1  0.32590800  0.66380200  0.16225600  1.0
  Nb  Nb9  1  0.67713600  0.33551800  0.84034300  1.0
  Nb  Nb10  1  0.33789400  0.66380200  0.66225600  1.0
  Nb  Nb11  1  0.65838200  0.33551800  0.34034300  1.0
