# generated using pymatgen
data_Co
_symmetry_space_group_name_H-M   'P 1'
_cell_length_a   5.77522467
_cell_length_b   5.81394161
_cell_length_c   5.79602643
_cell_angle_alpha   119.72376517
_cell_angle_beta   90.37937673
_cell_angle_gamma   119.39558694
_symmetry_Int_Tables_number   1
_chemical_formula_structural   Co
_chemical_formula_sum   Co4
_cell_volume   138.97763510
_cell_formula_units_Z   4
loop_
 _symmetry_equiv_pos_site_id
 _symmetry_equiv_pos_as_xyz
  1  'x, y, z'
loop_
 _atom_site_type_symbol
 _atom_site_label
 _atom_site_symmetry_multiplicity
 _atom_site_fract_x
 _atom_site_fract_y
 _atom_site_fract_z
 _atom_site_occupancy
  Co  Co0  1  0.50001100  0.50002200  0.00001400  1.0
  Co  Co1  1  0.00001200  0.00002200  0.50001400  1.0
  Co  Co2  1  0.50001100  0.00002200  0.50001400  1.0
  Co  Co3  1  0.50001200  0.50002300  0.50001400  1.0
