# generated using pymatgen
data_Co
_symmetry_space_group_name_H-M   'P 1'
_cell_length_a   4.95337353
_cell_length_b   5.00346270
_cell_length_c   7.57309971
_cell_angle_alpha   108.77149797
_cell_angle_beta   102.85051380
_cell_angle_gamma   99.44979338
_symmetry_Int_Tables_number   1
_chemical_formula_structural   Co
_chemical_formula_sum   Co5
_cell_volume   167.51174427
_cell_formula_units_Z   5
loop_
 _symmetry_equiv_pos_site_id
 _symmetry_equiv_pos_as_xyz
  1  'x, y, z'
loop_
 _atom_site_type_symbol
 _atom_site_label
 _atom_site_symmetry_multiplicity
 _atom_site_fract_x
 _atom_site_fract_y
 _atom_site_fract_z
 _atom_site_occupancy
  Co  Co0  1  0.10254400  0.69850000  0.69451500  1.0
  Co  Co1  1  0.00000000  0.50000000  0.00000000  1.0
  Co  Co2  1  0.69737400  0.89695000  0.89890700  1.0
  Co  Co3  1  0.30262600  0.10305000  0.10109300  1.0
  Co  Co4  1  0.89745600  0.30150000  0.30548500  1.0
