# generated using pymatgen
data_SiO2
_symmetry_space_group_name_H-M   'P 1'
_cell_length_a   13.09757206
_cell_length_b   11.28942222
_cell_length_c   9.42960621
_cell_angle_alpha   93.32062880
_cell_angle_beta   106.51301990
_cell_angle_gamma   103.52394284
_symmetry_Int_Tables_number   1
_chemical_formula_structural   SiO2
_chemical_formula_sum   'Si20 O40'
_cell_volume   1288.10151764
_cell_formula_units_Z   20
loop_
 _symmetry_equiv_pos_site_id
 _symmetry_equiv_pos_as_xyz
  1  'x, y, z'
loop_
 _atom_site_type_symbol
 _atom_site_label
 _atom_site_symmetry_multiplicity
 _atom_site_fract_x
 _atom_site_fract_y
 _atom_site_fract_z
 _atom_site_occupancy
  Si  Si0  1  0.26528514  0.49591520  0.22928044  1
  Si  Si1  1  0.73253227  0.48949460  0.77193567  1
  Si  Si2  1  0.25941076  0.54315595  0.91072643  1
  Si  Si3  1  0.73839492  0.44225270  0.09048030  1
  Si  Si4  1  0.31577800  0.37720992  0.68648089  1
  Si  Si5  1  0.68202733  0.60819354  0.31472549  1
  Si  Si6  1  0.12344933  0.41781764  0.42738443  1
  Si  Si7  1  0.87438753  0.56759980  0.57381928  1
  Si  Si8  1  0.40785090  0.14098190  0.73567932  1
  Si  Si9  1  0.58996703  0.84443122  0.26549760  1
  Si  Si10  1  0.32550973  0.86331816  0.66050483  1
  Si  Si11  1  0.67231817  0.12212177  0.34068244  1
  Si  Si12  1  0.12365977  0.64538637  0.63784310  1
  Si  Si13  1  0.87417468  0.34004934  0.36336394  1
  Si  Si14  1  0.47436901  0.38419827  0.29951400  1
  Si  Si15  1  0.52343363  0.60122196  0.70168417  1
  Si  Si16  1  0.46320164  0.75870586  0.93141936  1
  Si  Si17  1  0.53458848  0.22669916  0.06976869  1
  Si  Si18  1  0.42119621  0.73788352  0.43648171  1
  Si  Si19  1  0.57660641  0.24754016  0.56469077  1
  O  O20  1  0.21948369  0.50019751  0.05112664  1
  O  O21  1  0.77832718  0.48519578  0.95007943  1
  O  O22  1  0.35722326  0.41771833  0.26969027  1
  O  O23  1  0.64058011  0.56768241  0.73153476  1
  O  O24  1  0.31983893  0.63388269  0.31991425  1
  O  O25  1  0.67795732  0.35154546  0.68126193  1
  O  O26  1  0.15740718  0.42965674  0.27527975  1
  O  O27  1  0.84039329  0.55576322  0.72590395  1
  O  O28  1  0.37008688  0.65644201  0.97353586  1
  O  O29  1  0.62771609  0.32896676  0.02767099  1
  O  O30  1  0.16370507  0.58937781  0.79382627  1
  O  O31  1  0.83413173  0.39609021  0.20740010  1
  O  O32  1  0.28713745  0.42747463  0.83208861  1
  O  O33  1  0.71064778  0.55791548  0.16910871  1
  O  O34  1  0.34044433  0.24485252  0.70557291  1
  O  O35  1  0.65737251  0.74056114  0.29563194  1
  O  O36  1  0.42232551  0.47665412  0.66788747  1
  O  O37  1  0.57547312  0.50875406  0.33330178  1
  O  O38  1  0.20900494  0.35695154  0.54033951  1
  O  O39  1  0.78880101  0.62842633  0.46085237  1
  O  O40  1  0.12962547  0.55440518  0.50163840  1
  O  O41  1  0.86821139  0.43100659  0.49959496  1
  O  O42  1  0.99932223  0.32923189  0.38894223  1
  O  O43  1  0.99851145  0.65620737  0.61227000  1
  O  O44  1  0.32388594  0.00673918  0.66364139  1
  O  O45  1  0.67392649  0.97868672  0.33754892  1
  O  O46  1  0.50601167  0.16570195  0.65799796  1
  O  O47  1  0.49180813  0.81969960  0.34318690  1
  O  O48  1  0.45572225  0.14185570  0.91557119  1
  O  O49  1  0.54207179  0.84353987  0.08561692  1
  O  O50  1  0.40803587  0.84537204  0.81847925  1
  O  O51  1  0.58978120  0.14004410  0.18270821  1
  O  O52  1  0.20106768  0.78122343  0.64050572  1
  O  O53  1  0.79675939  0.20421335  0.36068506  1
  O  O54  1  0.36907672  0.82478775  0.52359733  1
  O  O55  1  0.62875140  0.16066364  0.47758670  1
  O  O56  1  0.46655785  0.29756196  0.15032480  1
  O  O57  1  0.53123390  0.68782456  0.85088765  1
  O  O58  1  0.49581781  0.31074522  0.44457778  1
  O  O59  1  0.50198303  0.67468711  0.55662731  1
