# generated using pymatgen
data_Fe
_symmetry_space_group_name_H-M   'P 1'
_cell_length_a   6.10014500
_cell_length_b   8.07136600
_cell_length_c   8.65704400
_cell_angle_alpha   90.00000000
_cell_angle_beta   90.00000000
_cell_angle_gamma   90.00000000
_symmetry_Int_Tables_number   1
_chemical_formula_structural   Fe
_chemical_formula_sum   Fe8
_cell_volume   426.24257243
_cell_formula_units_Z   8
loop_
 _symmetry_equiv_pos_site_id
 _symmetry_equiv_pos_as_xyz
  1  'x, y, z'
loop_
 _atom_site_type_symbol
 _atom_site_label
 _atom_site_symmetry_multiplicity
 _atom_site_fract_x
 _atom_site_fract_y
 _atom_site_fract_z
 _atom_site_occupancy
  Fe  Fe0  1  0.25785900  0.00000000  0.50000000  1.0
  Fe  Fe1  1  0.74214100  0.50000000  0.00000000  1.0
  Fe  Fe2  1  0.74214100  0.00000000  0.50000000  1.0
  Fe  Fe3  1  0.25785900  0.50000000  0.00000000  1.0
  Fe  Fe4  1  0.50000000  0.85356600  0.16546500  1.0
  Fe  Fe5  1  0.50000000  0.14643400  0.83453500  1.0
  Fe  Fe6  1  0.50000000  0.35356600  0.33453500  1.0
  Fe  Fe7  1  0.50000000  0.64643400  0.66546500  1.0
