# generated using pymatgen
data_Co
_symmetry_space_group_name_H-M   'P 1'
_cell_length_a   5.93826409
_cell_length_b   5.93825114
_cell_length_c   5.93826847
_cell_angle_alpha   90.09801057
_cell_angle_beta   119.92622322
_cell_angle_gamma   119.96058588
_symmetry_Int_Tables_number   1
_chemical_formula_structural   Co
_chemical_formula_sum   Co6
_cell_volume   148.19504747
_cell_formula_units_Z   6
loop_
 _symmetry_equiv_pos_site_id
 _symmetry_equiv_pos_as_xyz
  1  'x, y, z'
loop_
 _atom_site_type_symbol
 _atom_site_label
 _atom_site_symmetry_multiplicity
 _atom_site_fract_x
 _atom_site_fract_y
 _atom_site_fract_z
 _atom_site_occupancy
  Co  Co0  1  0.00000100  0.99913500  0.99913200  1.0
  Co  Co1  1  0.75197300  0.37527400  0.62330200  1.0
  Co  Co2  1  0.24802500  0.87133300  0.62330800  1.0
  Co  Co3  1  0.50000100  0.74923400  0.24923500  1.0
  Co  Co4  1  0.25189500  0.37323000  0.62511900  1.0
  Co  Co5  1  0.74811000  0.37322900  0.12133500  1.0
