# generated using pymatgen
data_EuTi
_symmetry_space_group_name_H-M   'P 1'
_cell_length_a   3.96040892
_cell_length_b   3.96048317
_cell_length_c   3.96269150
_cell_angle_alpha   90.00046406
_cell_angle_beta   90.00002215
_cell_angle_gamma   89.99456802
_symmetry_Int_Tables_number   1
_chemical_formula_structural   EuTi
_chemical_formula_sum   'Eu1 Ti1'
_cell_volume   62.15534243
_cell_formula_units_Z   1
loop_
 _symmetry_equiv_pos_site_id
 _symmetry_equiv_pos_as_xyz
  1  'x, y, z'
loop_
 _atom_site_type_symbol
 _atom_site_label
 _atom_site_symmetry_multiplicity
 _atom_site_fract_x
 _atom_site_fract_y
 _atom_site_fract_z
 _atom_site_occupancy
  Eu  Eu0  1  0.50000050  0.49999975  0.50000700  1.0
  Ti  Ti1  1  0.00000000  0.99999975  0.00001400  1.0
