# generated using pymatgen
data_Mn
_symmetry_space_group_name_H-M   'P 1'
_cell_length_a   5.56680952
_cell_length_b   5.56680952
_cell_length_c   7.85606111
_cell_angle_alpha   89.62810576
_cell_angle_beta   89.62810576
_cell_angle_gamma   88.96596794
_symmetry_Int_Tables_number   1
_chemical_formula_structural   Mn
_chemical_formula_sum   Mn4
_cell_volume   243.40465127
_cell_formula_units_Z   4
loop_
 _symmetry_equiv_pos_site_id
 _symmetry_equiv_pos_as_xyz
  1  'x, y, z'
loop_
 _atom_site_type_symbol
 _atom_site_label
 _atom_site_symmetry_multiplicity
 _atom_site_fract_x
 _atom_site_fract_y
 _atom_site_fract_z
 _atom_site_occupancy
  Mn  Mn0  1  0.74933200  0.25295900  0.25838900  1.0
  Mn  Mn1  1  0.74704100  0.25066800  0.74161100  1.0
  Mn  Mn2  1  0.25066800  0.74704100  0.74161100  1.0
  Mn  Mn3  1  0.25295900  0.74933200  0.25838900  1.0
