# generated using pymatgen
data_Fe
_symmetry_space_group_name_H-M   'P 1'
_cell_length_a   6.01110000
_cell_length_b   6.01109974
_cell_length_c   23.35606200
_cell_angle_alpha   90.00000000
_cell_angle_beta   90.00000000
_cell_angle_gamma   120.00000145
_symmetry_Int_Tables_number   1
_chemical_formula_structural   Fe
_chemical_formula_sum   Fe24
_cell_volume   730.86662798
_cell_formula_units_Z   24
loop_
 _symmetry_equiv_pos_site_id
 _symmetry_equiv_pos_as_xyz
  1  'x, y, z'
loop_
 _atom_site_type_symbol
 _atom_site_label
 _atom_site_symmetry_multiplicity
 _atom_site_fract_x
 _atom_site_fract_y
 _atom_site_fract_z
 _atom_site_occupancy
  Fe  Fe0  1  0.33333333  0.66666667  0.47164300  1.0
  Fe  Fe1  1  0.66666667  0.33333333  0.52792400  1.0
  Fe  Fe2  1  0.66666667  0.33333333  0.97164300  1.0
  Fe  Fe3  1  0.33333333  0.66666667  0.02792400  1.0
  Fe  Fe4  1  0.00000000  0.00000000  0.49998800  1.0
  Fe  Fe5  1  0.00000000  0.00000000  0.99998800  1.0
  Fe  Fe6  1  0.33333333  0.66666667  0.30900600  1.0
  Fe  Fe7  1  0.66666667  0.33333333  0.69118100  1.0
  Fe  Fe8  1  0.66666667  0.33333333  0.80900600  1.0
  Fe  Fe9  1  0.33333333  0.66666667  0.19118100  1.0
  Fe  Fe10  1  0.16498200  0.83501800  0.60874700  1.0
  Fe  Fe11  1  0.16498200  0.32996400  0.60874700  1.0
  Fe  Fe12  1  0.67003600  0.83501800  0.60874700  1.0
  Fe  Fe13  1  0.82902300  0.17097600  0.39035200  1.0
  Fe  Fe14  1  0.82902300  0.65804600  0.39035200  1.0
  Fe  Fe15  1  0.34195300  0.17097600  0.39035200  1.0
  Fe  Fe16  1  0.83501800  0.16498200  0.10874700  1.0
  Fe  Fe17  1  0.83501800  0.67003600  0.10874700  1.0
  Fe  Fe18  1  0.32996400  0.16498200  0.10874700  1.0
  Fe  Fe19  1  0.17097700  0.82902400  0.89035200  1.0
  Fe  Fe20  1  0.17097700  0.34195400  0.89035200  1.0
  Fe  Fe21  1  0.65804700  0.82902400  0.89035200  1.0
  Fe  Fe22  1  0.00000000  0.00000000  0.24792000  1.0
  Fe  Fe23  1  0.00000000  0.00000000  0.74792000  1.0
