# generated using pymatgen
data_Eu
_symmetry_space_group_name_H-M   'P 1'
_cell_length_a   8.36717200
_cell_length_b   8.36717200
_cell_length_c   8.36717200
_cell_angle_alpha   90.00000000
_cell_angle_beta   90.00000000
_cell_angle_gamma   90.00000000
_symmetry_Int_Tables_number   1
_chemical_formula_structural   Eu
_chemical_formula_sum   Eu8
_cell_volume   585.78209106
_cell_formula_units_Z   8
loop_
 _symmetry_equiv_pos_site_id
 _symmetry_equiv_pos_as_xyz
  1  'x, y, z'
loop_
 _atom_site_type_symbol
 _atom_site_label
 _atom_site_symmetry_multiplicity
 _atom_site_fract_x
 _atom_site_fract_y
 _atom_site_fract_z
 _atom_site_occupancy
  Eu  Eu0  1  0.24407900  0.24407900  0.24407900  1.0
  Eu  Eu1  1  0.27619600  0.22380400  0.77619600  1.0
  Eu  Eu2  1  0.22380400  0.77619600  0.27619600  1.0
  Eu  Eu3  1  0.25592100  0.75592100  0.74407900  1.0
  Eu  Eu4  1  0.77619600  0.27619600  0.22380400  1.0
  Eu  Eu5  1  0.74407900  0.25592100  0.75592100  1.0
  Eu  Eu6  1  0.75592100  0.74407900  0.25592100  1.0
  Eu  Eu7  1  0.72380400  0.72380400  0.72380400  1.0
