# generated using pymatgen
data_UCo
_symmetry_space_group_name_H-M   'P 1'
_cell_length_a   5.09054768
_cell_length_b   5.09054768
_cell_length_c   5.09054768
_cell_angle_alpha   94.43114699
_cell_angle_beta   115.54551801
_cell_angle_gamma   119.43994092
_symmetry_Int_Tables_number   1
_chemical_formula_structural   UCo
_chemical_formula_sum   'U2 Co2'
_cell_volume   96.37355000
_cell_formula_units_Z   2
loop_
 _symmetry_equiv_pos_site_id
 _symmetry_equiv_pos_as_xyz
  1  'x, y, z'
loop_
 _atom_site_type_symbol
 _atom_site_label
 _atom_site_symmetry_multiplicity
 _atom_site_fract_x
 _atom_site_fract_y
 _atom_site_fract_z
 _atom_site_occupancy
  U  U0  1  0.50000000  0.28222600  0.78222600  1.0
  U  U1  1  0.00000000  0.96777400  0.96777400  1.0
  Co  Co2  1  0.75000000  0.62500000  0.37500000  1.0
  Co  Co3  1  0.25000000  0.62500000  0.87500000  1.0
