# generated using pymatgen
data_Hg
_symmetry_space_group_name_H-M   'P 1'
_cell_length_a   10.51850700
_cell_length_b   13.26692158
_cell_length_c   13.26692158
_cell_angle_alpha   119.94803861
_cell_angle_beta   90.00000000
_cell_angle_gamma   90.00000000
_symmetry_Int_Tables_number   1
_chemical_formula_structural   Hg
_chemical_formula_sum   Hg34
_cell_volume   1604.17673486
_cell_formula_units_Z   34
loop_
 _symmetry_equiv_pos_site_id
 _symmetry_equiv_pos_as_xyz
  1  'x, y, z'
loop_
 _atom_site_type_symbol
 _atom_site_label
 _atom_site_symmetry_multiplicity
 _atom_site_fract_x
 _atom_site_fract_y
 _atom_site_fract_z
 _atom_site_occupancy
  Hg  Hg0  1  0.50212800  0.25097300  0.74935800  1.0
  Hg  Hg1  1  0.50256300  0.49809200  0.74904200  1.0
  Hg  Hg2  1  0.50212900  0.25102300  0.50163200  1.0
  Hg  Hg3  1  0.49787200  0.74935800  0.25097300  1.0
  Hg  Hg4  1  0.49787100  0.50163200  0.25102300  1.0
  Hg  Hg5  1  0.49743700  0.74904200  0.49809200  1.0
  Hg  Hg6  1  0.00212800  0.74935800  0.25097300  1.0
  Hg  Hg7  1  0.00212900  0.50163200  0.25102300  1.0
  Hg  Hg8  1  0.00256300  0.74904200  0.49809200  1.0
  Hg  Hg9  1  0.99787200  0.25097300  0.74935800  1.0
  Hg  Hg10  1  0.99743700  0.49809200  0.74904200  1.0
  Hg  Hg11  1  0.99787100  0.25102300  0.50163200  1.0
  Hg  Hg12  1  0.25000000  0.66666667  0.83302800  1.0
  Hg  Hg13  1  0.25000000  0.16674700  0.33333333  1.0
  Hg  Hg14  1  0.25000000  0.16634100  0.83325000  1.0
  Hg  Hg15  1  0.75000000  0.33333333  0.16674700  1.0
  Hg  Hg16  1  0.75000000  0.83302800  0.66666667  1.0
  Hg  Hg17  1  0.75000000  0.83325000  0.16634100  1.0
  Hg  Hg18  1  0.50000000  0.75012600  0.75012600  1.0
  Hg  Hg19  1  0.50017900  0.00005400  0.25016100  1.0
  Hg  Hg20  1  0.49982100  0.25016100  0.00005400  1.0
  Hg  Hg21  1  0.50000000  0.25001400  0.25001400  1.0
  Hg  Hg22  1  0.49988200  0.75014200  0.00048300  1.0
  Hg  Hg23  1  0.50011800  0.00048300  0.75014200  1.0
  Hg  Hg24  1  1.00000000  0.25001400  0.25001400  1.0
  Hg  Hg25  1  0.99988200  0.00048300  0.75014200  1.0
  Hg  Hg26  1  0.00011800  0.75014200  0.00048300  1.0
  Hg  Hg27  1  1.00000000  0.75012600  0.75012600  1.0
  Hg  Hg28  1  0.00017900  0.25016100  0.00005400  1.0
  Hg  Hg29  1  0.99982100  0.00005400  0.25016100  1.0
  Hg  Hg30  1  0.25000000  0.50048100  0.49952800  1.0
  Hg  Hg31  1  0.25000000  0.99895800  0.49945100  1.0
  Hg  Hg32  1  0.75000000  0.49952800  0.50048100  1.0
  Hg  Hg33  1  0.75000000  0.49945100  0.99895800  1.0
