# generated using pymatgen
data_Fe
_symmetry_space_group_name_H-M   'P 1'
_cell_length_a   5.35559200
_cell_length_b   7.70573500
_cell_length_c   10.15859000
_cell_angle_alpha   90.00000000
_cell_angle_beta   90.00000000
_cell_angle_gamma   90.00000000
_symmetry_Int_Tables_number   1
_chemical_formula_structural   Fe
_chemical_formula_sum   Fe4
_cell_volume   419.23254187
_cell_formula_units_Z   4
loop_
 _symmetry_equiv_pos_site_id
 _symmetry_equiv_pos_as_xyz
  1  'x, y, z'
loop_
 _atom_site_type_symbol
 _atom_site_label
 _atom_site_symmetry_multiplicity
 _atom_site_fract_x
 _atom_site_fract_y
 _atom_site_fract_z
 _atom_site_occupancy
  Fe  Fe0  1  0.74778200  0.80284400  0.10016800  1.0
  Fe  Fe1  1  0.24778200  0.30284400  0.39983200  1.0
  Fe  Fe2  1  0.74778200  0.69715600  0.60016800  1.0
  Fe  Fe3  1  0.24778200  0.19715600  0.89983200  1.0
