# generated using pymatgen
data_Fe
_symmetry_space_group_name_H-M   'P 1'
_cell_length_a   5.60502600
_cell_length_b   7.56730100
_cell_length_c   8.18968625
_cell_angle_alpha   90.00000000
_cell_angle_beta   96.62468410
_cell_angle_gamma   90.00000000
_symmetry_Int_Tables_number   1
_chemical_formula_structural   Fe
_chemical_formula_sum   Fe4
_cell_volume   345.04557689
_cell_formula_units_Z   4
loop_
 _symmetry_equiv_pos_site_id
 _symmetry_equiv_pos_as_xyz
  1  'x, y, z'
loop_
 _atom_site_type_symbol
 _atom_site_label
 _atom_site_symmetry_multiplicity
 _atom_site_fract_x
 _atom_site_fract_y
 _atom_site_fract_z
 _atom_site_occupancy
  Fe  Fe0  1  0.11100500  0.69111500  0.43982300  1.0
  Fe  Fe1  1  0.38899500  0.19111500  0.06017700  1.0
  Fe  Fe2  1  0.88899500  0.30888500  0.56017700  1.0
  Fe  Fe3  1  0.61100500  0.80888500  0.93982300  1.0
