# generated using pymatgen
data_Fe
_symmetry_space_group_name_H-M   'P 1'
_cell_length_a   8.51017900
_cell_length_b   9.11203700
_cell_length_c   15.83100010
_cell_angle_alpha   89.95873371
_cell_angle_beta   90.00000000
_cell_angle_gamma   90.00000000
_symmetry_Int_Tables_number   1
_chemical_formula_structural   Fe
_chemical_formula_sum   Fe12
_cell_volume   1227.61562816
_cell_formula_units_Z   12
loop_
 _symmetry_equiv_pos_site_id
 _symmetry_equiv_pos_as_xyz
  1  'x, y, z'
loop_
 _atom_site_type_symbol
 _atom_site_label
 _atom_site_symmetry_multiplicity
 _atom_site_fract_x
 _atom_site_fract_y
 _atom_site_fract_z
 _atom_site_occupancy
  Fe  Fe0  1  0.20733100  0.56163000  0.59455400  1.0
  Fe  Fe1  1  0.29058800  0.10217200  0.42298300  1.0
  Fe  Fe2  1  0.70941200  0.89782800  0.57701700  1.0
  Fe  Fe3  1  0.29266900  0.06163000  0.09455400  1.0
  Fe  Fe4  1  0.71142500  0.42345400  0.76139400  1.0
  Fe  Fe5  1  0.28857500  0.57654600  0.23860600  1.0
  Fe  Fe6  1  0.78857500  0.92345400  0.26139400  1.0
  Fe  Fe7  1  0.79266900  0.43837000  0.40544600  1.0
  Fe  Fe8  1  0.21142500  0.07654600  0.73860600  1.0
  Fe  Fe9  1  0.20941200  0.60217200  0.92298300  1.0
  Fe  Fe10  1  0.70733100  0.93837000  0.90544600  1.0
  Fe  Fe11  1  0.79058800  0.39782800  0.07701700  1.0
