# generated using pymatgen
data_Fe
_symmetry_space_group_name_H-M   'P 1'
_cell_length_a   5.24396800
_cell_length_b   5.25249132
_cell_length_c   6.38644211
_cell_angle_alpha   86.32131737
_cell_angle_beta   73.21033491
_cell_angle_gamma   68.82666121
_symmetry_Int_Tables_number   1
_chemical_formula_structural   Fe
_chemical_formula_sum   Fe2
_cell_volume   156.88082434
_cell_formula_units_Z   2
loop_
 _symmetry_equiv_pos_site_id
 _symmetry_equiv_pos_as_xyz
  1  'x, y, z'
loop_
 _atom_site_type_symbol
 _atom_site_label
 _atom_site_symmetry_multiplicity
 _atom_site_fract_x
 _atom_site_fract_y
 _atom_site_fract_z
 _atom_site_occupancy
  Fe  Fe0  1  0.25620700  0.20293600  0.70700500  1.0
  Fe  Fe1  1  0.74379300  0.79706400  0.29299500  1.0
