# generated using pymatgen
data_Fe
_symmetry_space_group_name_H-M   'P 1'
_cell_length_a   7.50152000
_cell_length_b   7.50152010
_cell_length_c   9.38168300
_cell_angle_alpha   90.00000000
_cell_angle_beta   90.00000000
_cell_angle_gamma   119.99999957
_symmetry_Int_Tables_number   1
_chemical_formula_structural   Fe
_chemical_formula_sum   Fe6
_cell_volume   457.20391110
_cell_formula_units_Z   6
loop_
 _symmetry_equiv_pos_site_id
 _symmetry_equiv_pos_as_xyz
  1  'x, y, z'
loop_
 _atom_site_type_symbol
 _atom_site_label
 _atom_site_symmetry_multiplicity
 _atom_site_fract_x
 _atom_site_fract_y
 _atom_site_fract_z
 _atom_site_occupancy
  Fe  Fe0  1  0.55488300  0.93975700  0.47266700  1.0
  Fe  Fe1  1  0.93975600  0.55488200  0.97266700  1.0
  Fe  Fe2  1  0.38487400  0.44511800  0.47266700  1.0
  Fe  Fe3  1  0.44511700  0.38487300  0.97266700  1.0
  Fe  Fe4  1  0.06024400  0.61512700  0.47266700  1.0
  Fe  Fe5  1  0.61512600  0.06024300  0.97266700  1.0
