# generated using pymatgen
data_Fe
_symmetry_space_group_name_H-M   'P 1'
_cell_length_a   8.92097300
_cell_length_b   9.35021100
_cell_length_c   9.78831400
_cell_angle_alpha   90.00000000
_cell_angle_beta   90.00000000
_cell_angle_gamma   90.00000000
_symmetry_Int_Tables_number   1
_chemical_formula_structural   Fe
_chemical_formula_sum   Fe8
_cell_volume   816.47243870
_cell_formula_units_Z   8
loop_
 _symmetry_equiv_pos_site_id
 _symmetry_equiv_pos_as_xyz
  1  'x, y, z'
loop_
 _atom_site_type_symbol
 _atom_site_label
 _atom_site_symmetry_multiplicity
 _atom_site_fract_x
 _atom_site_fract_y
 _atom_site_fract_z
 _atom_site_occupancy
  Fe  Fe0  1  0.06413100  0.21423300  0.60352000  1.0
  Fe  Fe1  1  0.43586900  0.78576700  0.10352000  1.0
  Fe  Fe2  1  0.43586900  0.71423300  0.60352000  1.0
  Fe  Fe3  1  0.56413100  0.21423300  0.89648000  1.0
  Fe  Fe4  1  0.06413100  0.28576700  0.10352000  1.0
  Fe  Fe5  1  0.56413100  0.28576700  0.39648000  1.0
  Fe  Fe6  1  0.93586900  0.78576700  0.39648000  1.0
  Fe  Fe7  1  0.93586900  0.71423300  0.89648000  1.0
