# generated using pymatgen
data_Fe
_symmetry_space_group_name_H-M   'P 1'
_cell_length_a   5.01061400
_cell_length_b   9.29499673
_cell_length_c   14.08457096
_cell_angle_alpha   81.74647648
_cell_angle_beta   79.75393341
_cell_angle_gamma   74.36352913
_symmetry_Int_Tables_number   1
_chemical_formula_structural   Fe
_chemical_formula_sum   Fe8
_cell_volume   618.44745121
_cell_formula_units_Z   8
loop_
 _symmetry_equiv_pos_site_id
 _symmetry_equiv_pos_as_xyz
  1  'x, y, z'
loop_
 _atom_site_type_symbol
 _atom_site_label
 _atom_site_symmetry_multiplicity
 _atom_site_fract_x
 _atom_site_fract_y
 _atom_site_fract_z
 _atom_site_occupancy
  Fe  Fe0  1  0.79820900  0.27008600  0.52298800  1.0
  Fe  Fe1  1  0.59128300  0.22991400  0.97701200  1.0
  Fe  Fe2  1  0.20179100  0.72991400  0.47701200  1.0
  Fe  Fe3  1  0.50000000  0.00000000  0.50000000  1.0
  Fe  Fe4  1  0.40871700  0.77008600  0.02298800  1.0
  Fe  Fe5  1  0.32681900  0.75000000  0.25000000  1.0
  Fe  Fe6  1  0.67318100  0.25000000  0.75000000  1.0
  Fe  Fe7  1  0.00000000  0.50000000  1.00000000  1.0
