# generated using pymatgen
data_Fe
_symmetry_space_group_name_H-M   'P 1'
_cell_length_a   5.24797000
_cell_length_b   7.29657600
_cell_length_c   10.49703800
_cell_angle_alpha   90.00000000
_cell_angle_beta   90.00000000
_cell_angle_gamma   90.00000000
_symmetry_Int_Tables_number   1
_chemical_formula_structural   Fe
_chemical_formula_sum   Fe4
_cell_volume   401.95480395
_cell_formula_units_Z   4
loop_
 _symmetry_equiv_pos_site_id
 _symmetry_equiv_pos_as_xyz
  1  'x, y, z'
loop_
 _atom_site_type_symbol
 _atom_site_label
 _atom_site_symmetry_multiplicity
 _atom_site_fract_x
 _atom_site_fract_y
 _atom_site_fract_z
 _atom_site_occupancy
  Fe  Fe0  1  0.69020000  0.78761300  0.15116900  1.0
  Fe  Fe1  1  0.19020000  0.28761300  0.34883100  1.0
  Fe  Fe2  1  0.30980000  0.28761300  0.84883100  1.0
  Fe  Fe3  1  0.80980000  0.78761300  0.65116900  1.0
