# generated using pymatgen
data_Fe
_symmetry_space_group_name_H-M   'P 1'
_cell_length_a   5.22355500
_cell_length_b   7.06385366
_cell_length_c   10.08535700
_cell_angle_alpha   90.00000000
_cell_angle_beta   90.00000000
_cell_angle_gamma   90.58537367
_symmetry_Int_Tables_number   1
_chemical_formula_structural   Fe
_chemical_formula_sum   Fe4
_cell_volume   372.11439847
_cell_formula_units_Z   4
loop_
 _symmetry_equiv_pos_site_id
 _symmetry_equiv_pos_as_xyz
  1  'x, y, z'
loop_
 _atom_site_type_symbol
 _atom_site_label
 _atom_site_symmetry_multiplicity
 _atom_site_fract_x
 _atom_site_fract_y
 _atom_site_fract_z
 _atom_site_occupancy
  Fe  Fe0  1  0.80120200  0.00836600  0.17529200  1.0
  Fe  Fe1  1  0.69879800  0.49163400  0.67529200  1.0
  Fe  Fe2  1  0.19879800  0.99163400  0.82470800  1.0
  Fe  Fe3  1  0.30120200  0.50836600  0.32470800  1.0
