# generated using pymatgen
data_Fe
_symmetry_space_group_name_H-M   'P 1'
_cell_length_a   5.35055200
_cell_length_b   8.73512500
_cell_length_c   8.80320400
_cell_angle_alpha   107.75620102
_cell_angle_beta   90.00000000
_cell_angle_gamma   90.00000000
_symmetry_Int_Tables_number   1
_chemical_formula_structural   Fe
_chemical_formula_sum   Fe4
_cell_volume   391.84192573
_cell_formula_units_Z   4
loop_
 _symmetry_equiv_pos_site_id
 _symmetry_equiv_pos_as_xyz
  1  'x, y, z'
loop_
 _atom_site_type_symbol
 _atom_site_label
 _atom_site_symmetry_multiplicity
 _atom_site_fract_x
 _atom_site_fract_y
 _atom_site_fract_z
 _atom_site_occupancy
  Fe  Fe0  1  0.69309100  0.77595700  0.12984900  1.0
  Fe  Fe1  1  0.19489300  0.63207300  0.62969900  1.0
  Fe  Fe2  1  0.30690900  0.27595700  0.12984900  1.0
  Fe  Fe3  1  0.80510700  0.13207300  0.62969900  1.0
