# generated using pymatgen
data_Fe
_symmetry_space_group_name_H-M   'P 1'
_cell_length_a   5.23831500
_cell_length_b   10.42315300
_cell_length_c   14.31537900
_cell_angle_alpha   90.00000000
_cell_angle_beta   90.00000000
_cell_angle_gamma   90.00000000
_symmetry_Int_Tables_number   1
_chemical_formula_structural   Fe
_chemical_formula_sum   Fe8
_cell_volume   781.61623920
_cell_formula_units_Z   8
loop_
 _symmetry_equiv_pos_site_id
 _symmetry_equiv_pos_as_xyz
  1  'x, y, z'
loop_
 _atom_site_type_symbol
 _atom_site_label
 _atom_site_symmetry_multiplicity
 _atom_site_fract_x
 _atom_site_fract_y
 _atom_site_fract_z
 _atom_site_occupancy
  Fe  Fe0  1  0.06859500  0.03732300  0.24728500  1.0
  Fe  Fe1  1  0.55344500  0.22006800  0.99920100  1.0
  Fe  Fe2  1  0.55344500  0.27993200  0.49920100  1.0
  Fe  Fe3  1  0.06859500  0.46267700  0.74728500  1.0
  Fe  Fe4  1  0.93140500  0.53732300  0.24728500  1.0
  Fe  Fe5  1  0.44655500  0.72006800  0.99920100  1.0
  Fe  Fe6  1  0.44655500  0.77993200  0.49920100  1.0
  Fe  Fe7  1  0.93140500  0.96267700  0.74728500  1.0
