# generated using pymatgen
data_Fe
_symmetry_space_group_name_H-M   'P 1'
_cell_length_a   6.39968400
_cell_length_b   7.91109594
_cell_length_c   9.40586737
_cell_angle_alpha   105.07755613
_cell_angle_beta   107.73696446
_cell_angle_gamma   100.75521530
_symmetry_Int_Tables_number   1
_chemical_formula_structural   Fe
_chemical_formula_sum   Fe6
_cell_volume   419.25592077
_cell_formula_units_Z   6
loop_
 _symmetry_equiv_pos_site_id
 _symmetry_equiv_pos_as_xyz
  1  'x, y, z'
loop_
 _atom_site_type_symbol
 _atom_site_label
 _atom_site_symmetry_multiplicity
 _atom_site_fract_x
 _atom_site_fract_y
 _atom_site_fract_z
 _atom_site_occupancy
  Fe  Fe0  1  0.01894300  0.00149400  0.01980400  1.0
  Fe  Fe1  1  0.05483400  0.72438900  0.51568200  1.0
  Fe  Fe2  1  0.95292100  0.27858100  0.46898400  1.0
  Fe  Fe3  1  0.61951400  0.55314900  0.89407500  1.0
  Fe  Fe4  1  0.39107500  0.47956300  0.13369900  1.0
  Fe  Fe5  1  0.71019400  0.18867200  0.70242000  1.0
