# generated using pymatgen
data_Fe
_symmetry_space_group_name_H-M   'P 1'
_cell_length_a   5.33306100
_cell_length_b   7.96109600
_cell_length_c   8.77348597
_cell_angle_alpha   104.28184909
_cell_angle_beta   90.00000000
_cell_angle_gamma   90.00000000
_symmetry_Int_Tables_number   1
_chemical_formula_structural   Fe
_chemical_formula_sum   Fe4
_cell_volume   360.98359988
_cell_formula_units_Z   4
loop_
 _symmetry_equiv_pos_site_id
 _symmetry_equiv_pos_as_xyz
  1  'x, y, z'
loop_
 _atom_site_type_symbol
 _atom_site_label
 _atom_site_symmetry_multiplicity
 _atom_site_fract_x
 _atom_site_fract_y
 _atom_site_fract_z
 _atom_site_occupancy
  Fe  Fe0  1  0.14270700  0.97269500  0.06587600  1.0
  Fe  Fe1  1  0.68186300  0.48626400  0.27609000  1.0
  Fe  Fe2  1  0.85729300  0.97269500  0.56587600  1.0
  Fe  Fe3  1  0.31813700  0.48626400  0.77609000  1.0
