# generated using pymatgen
data_Nd
_symmetry_space_group_name_H-M   'P 1'
_cell_length_a   6.20404100
_cell_length_b   9.32446400
_cell_length_c   9.32446426
_cell_angle_alpha   119.99999908
_cell_angle_beta   90.00000000
_cell_angle_gamma   90.00000000
_symmetry_Int_Tables_number   1
_chemical_formula_structural   Nd
_chemical_formula_sum   Nd10
_cell_volume   467.14645792
_cell_formula_units_Z   10
loop_
 _symmetry_equiv_pos_site_id
 _symmetry_equiv_pos_as_xyz
  1  'x, y, z'
loop_
 _atom_site_type_symbol
 _atom_site_label
 _atom_site_symmetry_multiplicity
 _atom_site_fract_x
 _atom_site_fract_y
 _atom_site_fract_z
 _atom_site_occupancy
  Nd  Nd0  1  0.75000000  0.70722400  0.70722400  1.0
  Nd  Nd1  1  0.25000000  0.70722400  0.00000000  1.0
  Nd  Nd2  1  0.25000000  1.00000000  0.70722400  1.0
  Nd  Nd3  1  0.75000000  0.00000000  0.29277600  1.0
  Nd  Nd4  1  0.75000000  0.29277600  0.00000000  1.0
  Nd  Nd5  1  0.25000000  0.29277600  0.29277600  1.0
  Nd  Nd6  1  0.75000000  0.66666667  0.33333333  1.0
  Nd  Nd7  1  0.25000000  0.33333333  0.66666667  1.0
  Nd  Nd8  1  0.75000000  0.33333333  0.66666667  1.0
  Nd  Nd9  1  0.25000000  0.66666667  0.33333333  1.0
