# generated using pymatgen
data_FeMo6
_symmetry_space_group_name_H-M   'P 1'
_cell_length_a   6.73563841
_cell_length_b   6.73563841
_cell_length_c   6.73563847
_cell_angle_alpha   92.44442247
_cell_angle_beta   92.44442247
_cell_angle_gamma   92.44442679
_symmetry_Int_Tables_number   1
_chemical_formula_structural   FeMo6
_chemical_formula_sum   'Fe1 Mo6'
_cell_volume   304.72926752
_cell_formula_units_Z   1
loop_
 _symmetry_equiv_pos_site_id
 _symmetry_equiv_pos_as_xyz
  1  'x, y, z'
loop_
 _atom_site_type_symbol
 _atom_site_label
 _atom_site_symmetry_multiplicity
 _atom_site_fract_x
 _atom_site_fract_y
 _atom_site_fract_z
 _atom_site_occupancy
  Fe  Fe0  1  0.00000000  0.00000000  0.00000000  1.0
  Mo  Mo1  1  0.45346400  0.77328800  0.57981300  1.0
  Mo  Mo2  1  0.54653600  0.22671200  0.42018700  1.0
  Mo  Mo3  1  0.77328800  0.57981300  0.45346400  1.0
  Mo  Mo4  1  0.22671200  0.42018700  0.54653600  1.0
  Mo  Mo5  1  0.57981300  0.45346400  0.77328800  1.0
  Mo  Mo6  1  0.42018700  0.54653600  0.22671200  1.0
