# generated using pymatgen
data_MnRu
_symmetry_space_group_name_H-M   'P 1'
_cell_length_a   5.60695610
_cell_length_b   5.65959778
_cell_length_c   5.66004381
_cell_angle_alpha   60.49465972
_cell_angle_beta   61.41850283
_cell_angle_gamma   61.35523657
_symmetry_Int_Tables_number   1
_chemical_formula_structural   MnRu
_chemical_formula_sum   'Mn1 Ru1'
_cell_volume   130.09851252
_cell_formula_units_Z   1
loop_
 _symmetry_equiv_pos_site_id
 _symmetry_equiv_pos_as_xyz
  1  'x, y, z'
loop_
 _atom_site_type_symbol
 _atom_site_label
 _atom_site_symmetry_multiplicity
 _atom_site_fract_x
 _atom_site_fract_y
 _atom_site_fract_z
 _atom_site_occupancy
  Mn  Mn0  1  0.50053950  0.49517850  0.49553950  1.0
  Ru  Ru1  1  0.00004900  0.99731700  0.99844000  1.0
