# generated using pymatgen
data_MnRu
_symmetry_space_group_name_H-M   'P 1'
_cell_length_a   5.63660528
_cell_length_b   5.63657795
_cell_length_c   5.63659147
_cell_angle_alpha   61.17792628
_cell_angle_beta   61.17780660
_cell_angle_gamma   61.17774933
_symmetry_Int_Tables_number   1
_chemical_formula_structural   MnRu
_chemical_formula_sum   'Mn1 Ru1'
_cell_volume   129.98490981
_cell_formula_units_Z   1
loop_
 _symmetry_equiv_pos_site_id
 _symmetry_equiv_pos_as_xyz
  1  'x, y, z'
loop_
 _atom_site_type_symbol
 _atom_site_label
 _atom_site_symmetry_multiplicity
 _atom_site_fract_x
 _atom_site_fract_y
 _atom_site_fract_z
 _atom_site_occupancy
  Mn  Mn0  1  0.50253800  0.50252900  0.50253400  1.0
  Ru  Ru1  1  0.00172000  0.00171800  0.00171200  1.0
