# generated using pymatgen
data_SiO2
_symmetry_space_group_name_H-M   'P 1'
_cell_length_a   2.82661577
_cell_length_b   11.66519105
_cell_length_c   11.75429354
_cell_angle_alpha   89.24322885
_cell_angle_beta   83.15765437
_cell_angle_gamma   83.21907946
_symmetry_Int_Tables_number   1
_chemical_formula_structural   SiO2
_chemical_formula_sum   'Si8 O16'
_cell_volume   382.12209789
_cell_formula_units_Z   8
loop_
 _symmetry_equiv_pos_site_id
 _symmetry_equiv_pos_as_xyz
  1  'x, y, z'
loop_
 _atom_site_type_symbol
 _atom_site_label
 _atom_site_symmetry_multiplicity
 _atom_site_fract_x
 _atom_site_fract_y
 _atom_site_fract_z
 _atom_site_occupancy
  Si  Si0  1  0.40131350  0.92176766  0.33567813  1
  Si  Si1  1  0.77657552  0.80559046  0.69008079  1
  Si  Si2  1  0.33113067  0.34303815  0.06485163  1
  Si  Si3  1  0.66821184  0.07438667  0.64254624  1
  Si  Si4  1  0.48767659  0.29720996  0.79863970  1
  Si  Si5  1  0.58770874  0.69933172  0.17955088  1
  Si  Si6  1  0.29317736  0.19057723  0.28822727  1
  Si  Si7  1  0.74360695  0.65314059  0.91368348  1
  O  O8  1  0.87384742  0.90441216  0.40812615  1
  O  O9  1  0.28730187  0.57984539  0.89759655  1
  O  O10  1  0.78726456  0.41622643  0.08141029  1
  O  O11  1  0.49789553  0.82987173  0.23083079  1
  O  O12  1  0.32728763  0.76371641  0.62886959  1
  O  O13  1  0.65281257  0.71003557  0.04072708  1
  O  O14  1  0.74247864  0.23249306  0.34940729  1
  O  O15  1  0.33527081  0.23852983  0.15732599  1
  O  O16  1  0.19583852  0.09152486  0.57001779  1
  O  O17  1  0.97682549  0.35991450  0.75874385  1
  O  O18  1  0.57443935  0.16672559  0.74704845  1
  O  O19  1  0.36487411  0.05054692  0.28141526  1
  O  O20  1  0.73795573  0.75729033  0.82084514  1
  O  O21  1  0.42330417  0.28672215  0.93751410  1
  O  O22  1  0.70258907  0.94567958  0.69708075  1
  O  O23  1  0.09850136  0.63665405  0.21947584  1
