# generated using pymatgen
data_Fe
_symmetry_space_group_name_H-M   'P 1'
_cell_length_a   6.01222911
_cell_length_b   6.01222911
_cell_length_c   16.90650675
_cell_angle_alpha   93.36067679
_cell_angle_beta   93.36067679
_cell_angle_gamma   119.81651286
_symmetry_Int_Tables_number   1
_chemical_formula_structural   Fe
_chemical_formula_sum   Fe12
_cell_volume   526.58285816
_cell_formula_units_Z   12
loop_
 _symmetry_equiv_pos_site_id
 _symmetry_equiv_pos_as_xyz
  1  'x, y, z'
loop_
 _atom_site_type_symbol
 _atom_site_label
 _atom_site_symmetry_multiplicity
 _atom_site_fract_x
 _atom_site_fract_y
 _atom_site_fract_z
 _atom_site_occupancy
  Fe  Fe0  1  0.97393900  0.30930000  0.92914000  1.0
  Fe  Fe1  1  0.30930000  0.97393900  0.92914000  1.0
  Fe  Fe2  1  0.02606100  0.69070000  0.07086000  1.0
  Fe  Fe3  1  0.69070000  0.02606100  0.07086000  1.0
  Fe  Fe4  1  0.86136600  0.86136600  0.57385400  1.0
  Fe  Fe5  1  0.13863400  0.13863400  0.42614600  1.0
  Fe  Fe6  1  0.64567600  0.64567600  0.92941400  1.0
  Fe  Fe7  1  0.35432400  0.35432400  0.07058600  1.0
  Fe  Fe8  1  0.19116100  0.52124000  0.57179500  1.0
  Fe  Fe9  1  0.52124000  0.19116100  0.57179500  1.0
  Fe  Fe10  1  0.80883900  0.47876000  0.42820500  1.0
  Fe  Fe11  1  0.47876000  0.80883900  0.42820500  1.0
