# generated using pymatgen
data_Cr
_symmetry_space_group_name_H-M   'P 1'
_cell_length_a   6.91226900
_cell_length_b   7.32532359
_cell_length_c   8.65019230
_cell_angle_alpha   90.53485168
_cell_angle_beta   104.10730280
_cell_angle_gamma   104.92846018
_symmetry_Int_Tables_number   1
_chemical_formula_structural   Cr
_chemical_formula_sum   Cr8
_cell_volume   409.23455954
_cell_formula_units_Z   8
loop_
 _symmetry_equiv_pos_site_id
 _symmetry_equiv_pos_as_xyz
  1  'x, y, z'
loop_
 _atom_site_type_symbol
 _atom_site_label
 _atom_site_symmetry_multiplicity
 _atom_site_fract_x
 _atom_site_fract_y
 _atom_site_fract_z
 _atom_site_occupancy
  Cr  Cr0  1  0.49218500  0.24043800  0.01679200  1.0
  Cr  Cr1  1  0.81415900  0.56545100  0.33864500  1.0
  Cr  Cr2  1  0.17563500  0.90645000  0.67374300  1.0
  Cr  Cr3  1  0.50781500  0.75956200  0.98320800  1.0
  Cr  Cr4  1  0.82436500  0.09355000  0.32625700  1.0
  Cr  Cr5  1  0.18584100  0.43454900  0.66135500  1.0
  Cr  Cr6  1  0.82816900  0.32671400  0.82409000  1.0
  Cr  Cr7  1  0.17183100  0.67328600  0.17591000  1.0
