# generated using pymatgen
data_Fe
_symmetry_space_group_name_H-M   'P 1'
_cell_length_a   5.36706500
_cell_length_b   6.73225800
_cell_length_c   6.73225847
_cell_angle_alpha   60.00000233
_cell_angle_beta   90.00000000
_cell_angle_gamma   90.00000000
_symmetry_Int_Tables_number   1
_chemical_formula_structural   Fe
_chemical_formula_sum   Fe8
_cell_volume   210.66337085
_cell_formula_units_Z   8
loop_
 _symmetry_equiv_pos_site_id
 _symmetry_equiv_pos_as_xyz
  1  'x, y, z'
loop_
 _atom_site_type_symbol
 _atom_site_label
 _atom_site_symmetry_multiplicity
 _atom_site_fract_x
 _atom_site_fract_y
 _atom_site_fract_z
 _atom_site_occupancy
  Fe  Fe0  1  0.49924800  0.52944700  0.94110600  1.0
  Fe  Fe1  1  0.49924800  0.52944700  0.52944800  1.0
  Fe  Fe2  1  0.03797100  0.00000000  0.00000000  1.0
  Fe  Fe3  1  0.99924800  0.47055300  0.05889400  1.0
  Fe  Fe4  1  0.49924800  0.94110500  0.52944800  1.0
  Fe  Fe5  1  0.53797100  0.00000000  0.00000000  1.0
  Fe  Fe6  1  0.99924800  0.47055300  0.47055200  1.0
  Fe  Fe7  1  0.99924800  0.05889500  0.47055200  1.0
