# generated using pymatgen
data_NdNi4
_symmetry_space_group_name_H-M   'P 1'
_cell_length_a   5.04275400
_cell_length_b   6.94621800
_cell_length_c   13.78365298
_cell_angle_alpha   104.59429753
_cell_angle_beta   100.54018899
_cell_angle_gamma   90.00000002
_symmetry_Int_Tables_number   1
_chemical_formula_structural   NdNi4
_chemical_formula_sum   'Nd6 Ni24'
_cell_volume   458.81322997
_cell_formula_units_Z   6
loop_
 _symmetry_equiv_pos_site_id
 _symmetry_equiv_pos_as_xyz
  1  'x, y, z'
loop_
 _atom_site_type_symbol
 _atom_site_label
 _atom_site_symmetry_multiplicity
 _atom_site_fract_x
 _atom_site_fract_y
 _atom_site_fract_z
 _atom_site_occupancy
  Nd  Nd0  1  0.66930900  0.91930900  0.33861800  1.0
  Nd  Nd1  1  0.00956600  0.75956600  0.01913200  1.0
  Nd  Nd2  1  0.33552200  0.58552200  0.67104400  1.0
  Nd  Nd3  1  0.99043400  0.24043400  0.98086800  1.0
  Nd  Nd4  1  0.33069100  0.08069100  0.66138200  1.0
  Nd  Nd5  1  0.66447800  0.41447800  0.32895600  1.0
  Ni  Ni6  1  0.66803100  0.86575000  0.83877200  1.0
  Ni  Ni7  1  0.16721700  0.21194400  0.33443400  1.0
  Ni  Ni8  1  0.43651900  0.18651900  0.87303800  1.0
  Ni  Ni9  1  1.00000000  0.29349100  0.50000000  1.0
  Ni  Ni10  1  0.16721700  0.62249000  0.33443400  1.0
  Ni  Ni11  1  0.50000000  0.70650900  0.50000000  1.0
  Ni  Ni12  1  0.82925900  0.52697800  0.16122900  1.0
  Ni  Ni13  1  0.88711600  0.13711600  0.77423200  1.0
  Ni  Ni14  1  0.22262700  0.97262700  0.44525400  1.0
  Ni  Ni15  1  0.83278300  0.37751000  0.66556600  1.0
  Ni  Ni16  1  0.17074100  0.47302200  0.83877100  1.0
  Ni  Ni17  1  0.11288400  0.86288400  0.22576800  1.0
  Ni  Ni18  1  0.50000000  0.00000000  1.00000000  1.0
  Ni  Ni19  1  0.83278300  0.78805600  0.66556600  1.0
  Ni  Ni20  1  0.33196900  0.52697800  0.16122800  1.0
  Ni  Ni21  1  0.33196900  0.13425000  0.16122800  1.0
  Ni  Ni22  1  0.66803100  0.47302200  0.83877200  1.0
  Ni  Ni23  1  0.17074100  0.86575000  0.83877100  1.0
  Ni  Ni24  1  0.82925900  0.13425000  0.16122900  1.0
  Ni  Ni25  1  0.56348100  0.81348100  0.12696200  1.0
  Ni  Ni26  1  0.50000000  0.29349100  0.50000000  1.0
  Ni  Ni27  1  0.00000000  0.70650900  0.50000000  1.0
  Ni  Ni28  1  0.50000000  0.50000000  0.00000000  1.0
  Ni  Ni29  1  0.77737300  0.02737300  0.55474600  1.0
