# generated using pymatgen
data_SmV
_symmetry_space_group_name_H-M   'P 1'
_cell_length_a   5.44665000
_cell_length_b   5.74671900
_cell_length_c   7.72916400
_cell_angle_alpha   90.00000000
_cell_angle_beta   90.00000000
_cell_angle_gamma   90.00000000
_symmetry_Int_Tables_number   1
_chemical_formula_structural   SmV
_chemical_formula_sum   'Sm4 V4'
_cell_volume   241.92567012
_cell_formula_units_Z   4
loop_
 _symmetry_equiv_pos_site_id
 _symmetry_equiv_pos_as_xyz
  1  'x, y, z'
loop_
 _atom_site_type_symbol
 _atom_site_label
 _atom_site_symmetry_multiplicity
 _atom_site_fract_x
 _atom_site_fract_y
 _atom_site_fract_z
 _atom_site_occupancy
  Sm  Sm0  1  0.98151700  0.43532500  0.75000000  1.0
  Sm  Sm1  1  0.01848300  0.56467500  0.25000000  1.0
  Sm  Sm2  1  0.48151700  0.06467500  0.25000000  1.0
  Sm  Sm3  1  0.51848300  0.93532500  0.75000000  1.0
  V  V4  1  0.00000000  0.00000000  0.50000000  1.0
  V  V5  1  0.50000000  0.50000000  0.50000000  1.0
  V  V6  1  0.00000000  0.00000000  0.00000000  1.0
  V  V7  1  0.50000000  0.50000000  0.00000000  1.0
