# generated using pymatgen
data_Fe
_symmetry_space_group_name_H-M   'P 1'
_cell_length_a   6.01681000
_cell_length_b   6.01681060
_cell_length_c   23.49536800
_cell_angle_alpha   90.00000000
_cell_angle_beta   90.00000000
_cell_angle_gamma   119.99999672
_symmetry_Int_Tables_number   1
_chemical_formula_structural   Fe
_chemical_formula_sum   Fe24
_cell_volume   736.62344298
_cell_formula_units_Z   24
loop_
 _symmetry_equiv_pos_site_id
 _symmetry_equiv_pos_as_xyz
  1  'x, y, z'
loop_
 _atom_site_type_symbol
 _atom_site_label
 _atom_site_symmetry_multiplicity
 _atom_site_fract_x
 _atom_site_fract_y
 _atom_site_fract_z
 _atom_site_occupancy
  Fe  Fe0  1  0.16801300  0.83198700  0.89174200  1.0
  Fe  Fe1  1  0.16801300  0.83198700  0.60825800  1.0
  Fe  Fe2  1  0.33333333  0.66666667  0.02808600  1.0
  Fe  Fe3  1  0.83198700  0.66397400  0.39174200  1.0
  Fe  Fe4  1  0.33333333  0.66666667  0.19028500  1.0
  Fe  Fe5  1  0.66397400  0.83198700  0.60825800  1.0
  Fe  Fe6  1  0.83198700  0.16801300  0.39174200  1.0
  Fe  Fe7  1  0.66666667  0.33333333  0.69028500  1.0
  Fe  Fe8  1  0.66666667  0.33333333  0.97191400  1.0
  Fe  Fe9  1  0.33602600  0.16801300  0.10825800  1.0
  Fe  Fe10  1  0.66397400  0.83198700  0.89174200  1.0
  Fe  Fe11  1  0.16801300  0.33602600  0.89174200  1.0
  Fe  Fe12  1  0.66666667  0.33333333  0.80971500  1.0
  Fe  Fe13  1  0.33602600  0.16801300  0.39174200  1.0
  Fe  Fe14  1  0.00000000  0.00000000  0.50000000  1.0
  Fe  Fe15  1  0.66666667  0.33333333  0.52808600  1.0
  Fe  Fe16  1  0.83198700  0.16801300  0.10825800  1.0
  Fe  Fe17  1  0.33333333  0.66666667  0.30971500  1.0
  Fe  Fe18  1  0.83198700  0.66397400  0.10825800  1.0
  Fe  Fe19  1  0.33333333  0.66666667  0.47191400  1.0
  Fe  Fe20  1  0.16801300  0.33602600  0.60825800  1.0
  Fe  Fe21  1  0.00000000  0.00000000  0.25000000  1.0
  Fe  Fe22  1  0.00000000  0.00000000  0.00000000  1.0
  Fe  Fe23  1  0.00000000  0.00000000  0.75000000  1.0
