# generated using pymatgen
data_Gd2Fe17
_symmetry_space_group_name_H-M   'P 1'
_cell_length_a   8.27977200
_cell_length_b   8.52575200
_cell_length_c   8.52575302
_cell_angle_alpha   60.00000397
_cell_angle_beta   90.00000000
_cell_angle_gamma   90.00000000
_symmetry_Int_Tables_number   1
_chemical_formula_structural   Gd2Fe17
_chemical_formula_sum   'Gd4 Fe34'
_cell_volume   521.21207656
_cell_formula_units_Z   2
loop_
 _symmetry_equiv_pos_site_id
 _symmetry_equiv_pos_as_xyz
  1  'x, y, z'
loop_
 _atom_site_type_symbol
 _atom_site_label
 _atom_site_symmetry_multiplicity
 _atom_site_fract_x
 _atom_site_fract_y
 _atom_site_fract_z
 _atom_site_occupancy
  Gd  Gd0  1  0.75000000  0.00000000  0.00000000  1.0
  Gd  Gd1  1  0.25000000  0.00000000  0.00000000  1.0
  Gd  Gd2  1  0.25000000  0.33333333  0.33333333  1.0
  Gd  Gd3  1  0.75000000  0.66666667  0.66666667  1.0
  Fe  Fe4  1  0.60773400  0.33333333  0.33333333  1.0
  Fe  Fe5  1  0.39226600  0.66666667  0.66666667  1.0
  Fe  Fe6  1  0.10773400  0.66666667  0.66666667  1.0
  Fe  Fe7  1  0.89226600  0.33333333  0.33333333  1.0
  Fe  Fe8  1  0.50000000  0.50000000  0.00000000  1.0
  Fe  Fe9  1  0.50000000  0.00000000  0.50000000  1.0
  Fe  Fe10  1  0.50000000  0.50000000  0.50000000  1.0
  Fe  Fe11  1  0.00000000  0.50000000  0.00000000  1.0
  Fe  Fe12  1  0.00000000  0.00000000  0.50000000  1.0
  Fe  Fe13  1  1.00000000  0.50000000  0.50000000  1.0
  Fe  Fe14  1  0.75000000  0.63229200  0.03858000  1.0
  Fe  Fe15  1  0.75000000  0.03858000  0.32912800  1.0
  Fe  Fe16  1  0.75000000  0.32912800  0.63229200  1.0
  Fe  Fe17  1  0.75000000  0.32912800  0.03858000  1.0
  Fe  Fe18  1  0.75000000  0.63229200  0.32912800  1.0
  Fe  Fe19  1  0.75000000  0.03858000  0.63229200  1.0
  Fe  Fe20  1  0.25000000  0.36770800  0.96142000  1.0
  Fe  Fe21  1  0.25000000  0.96142000  0.67087200  1.0
  Fe  Fe22  1  0.25000000  0.67087200  0.36770800  1.0
  Fe  Fe23  1  0.25000000  0.67087200  0.96142000  1.0
  Fe  Fe24  1  0.25000000  0.36770800  0.67087200  1.0
  Fe  Fe25  1  0.25000000  0.96142000  0.36770800  1.0
  Fe  Fe26  1  0.48678600  0.16588500  0.66823000  1.0
  Fe  Fe27  1  0.48678600  0.66823100  0.16588400  1.0
  Fe  Fe28  1  0.48678600  0.16588500  0.16588400  1.0
  Fe  Fe29  1  0.51321400  0.83411500  0.33177000  1.0
  Fe  Fe30  1  0.51321400  0.33176900  0.83411600  1.0
  Fe  Fe31  1  0.51321400  0.83411500  0.83411600  1.0
  Fe  Fe32  1  0.98678600  0.83411500  0.33177000  1.0
  Fe  Fe33  1  0.98678600  0.33176900  0.83411600  1.0
  Fe  Fe34  1  0.98678600  0.83411500  0.83411600  1.0
  Fe  Fe35  1  0.01321400  0.16588500  0.66823000  1.0
  Fe  Fe36  1  0.01321400  0.66823100  0.16588400  1.0
  Fe  Fe37  1  0.01321400  0.16588500  0.16588400  1.0
