# generated using pymatgen
data_Pb
_symmetry_space_group_name_H-M   'P 1'
_cell_length_a   8.85946666
_cell_length_b   8.85946666
_cell_length_c   13.05495364
_cell_angle_alpha   89.56886521
_cell_angle_beta   89.56886521
_cell_angle_gamma   89.95641942
_symmetry_Int_Tables_number   1
_chemical_formula_structural   Pb
_chemical_formula_sum   Pb4
_cell_volume   1024.62699092
_cell_formula_units_Z   4
loop_
 _symmetry_equiv_pos_site_id
 _symmetry_equiv_pos_as_xyz
  1  'x, y, z'
loop_
 _atom_site_type_symbol
 _atom_site_label
 _atom_site_symmetry_multiplicity
 _atom_site_fract_x
 _atom_site_fract_y
 _atom_site_fract_z
 _atom_site_occupancy
  Pb  Pb0  1  0.49179600  0.48336500  0.01139300  1.0
  Pb  Pb1  1  0.48336500  0.49179600  0.51139300  1.0
  Pb  Pb2  1  0.97080700  0.98826800  0.51046600  1.0
  Pb  Pb3  1  0.98826800  0.97080700  0.01046600  1.0
