# generated using pymatgen
data_Cr
_symmetry_space_group_name_H-M   'P 1'
_cell_length_a   5.45293159
_cell_length_b   5.60156406
_cell_length_c   7.83951800
_cell_angle_alpha   89.99727962
_cell_angle_beta   90.00191986
_cell_angle_gamma   89.99137086
_symmetry_Int_Tables_number   1
_chemical_formula_structural   Cr
_chemical_formula_sum   Cr2
_cell_volume   239.45764785
_cell_formula_units_Z   2
loop_
 _symmetry_equiv_pos_site_id
 _symmetry_equiv_pos_as_xyz
  1  'x, y, z'
loop_
 _atom_site_type_symbol
 _atom_site_label
 _atom_site_symmetry_multiplicity
 _atom_site_fract_x
 _atom_site_fract_y
 _atom_site_fract_z
 _atom_site_occupancy
  Cr  Cr0  1  0.49999400  0.00001500  0.99999300  1.0
  Cr  Cr1  1  0.49997700  0.99999300  0.49999900  1.0
