# generated using pymatgen
data_Co
_symmetry_space_group_name_H-M   'P 1'
_cell_length_a   5.96031589
_cell_length_b   5.96031589
_cell_length_c   19.70321877
_cell_angle_alpha   81.62639653
_cell_angle_beta   81.62639653
_cell_angle_gamma   60.25195360
_symmetry_Int_Tables_number   1
_chemical_formula_structural   Co
_chemical_formula_sum   Co8
_cell_volume   599.04391105
_cell_formula_units_Z   8
loop_
 _symmetry_equiv_pos_site_id
 _symmetry_equiv_pos_as_xyz
  1  'x, y, z'
loop_
 _atom_site_type_symbol
 _atom_site_label
 _atom_site_symmetry_multiplicity
 _atom_site_fract_x
 _atom_site_fract_y
 _atom_site_fract_z
 _atom_site_occupancy
  Co  Co0  1  0.62621400  0.62621400  0.12744800  1.0
  Co  Co1  1  0.74957400  0.74957400  0.25040500  1.0
  Co  Co2  1  0.87531700  0.87531700  0.37343200  1.0
  Co  Co3  1  0.12695000  0.12695000  0.62505900  1.0
  Co  Co4  1  0.34770100  0.34770100  0.46761900  1.0
  Co  Co5  1  0.37690300  0.37690300  0.87533000  1.0
  Co  Co6  1  0.59744700  0.59744700  0.71884000  1.0
  Co  Co7  1  0.84714300  0.84714300  0.97018700  1.0
