# generated using pymatgen
data_Co
_symmetry_space_group_name_H-M   'P 1'
_cell_length_a   5.85038600
_cell_length_b   5.95480849
_cell_length_c   5.95504624
_cell_angle_alpha   90.58333807
_cell_angle_beta   119.42321019
_cell_angle_gamma   119.42409587
_symmetry_Int_Tables_number   1
_chemical_formula_structural   Co
_chemical_formula_sum   Co2
_cell_volume   148.49123555
_cell_formula_units_Z   2
loop_
 _symmetry_equiv_pos_site_id
 _symmetry_equiv_pos_as_xyz
  1  'x, y, z'
loop_
 _atom_site_type_symbol
 _atom_site_label
 _atom_site_symmetry_multiplicity
 _atom_site_fract_x
 _atom_site_fract_y
 _atom_site_fract_z
 _atom_site_occupancy
  Co  Co0  1  0.75000100  0.62500100  0.37500000  1.0
  Co  Co1  1  0.25000000  0.62500000  0.37500000  1.0
