# generated using pymatgen
data_Mn
_symmetry_space_group_name_H-M   'P 1'
_cell_length_a   6.02192800
_cell_length_b   7.82851201
_cell_length_c   8.68698889
_cell_angle_alpha   63.22376454
_cell_angle_beta   89.99860784
_cell_angle_gamma   89.99762284
_symmetry_Int_Tables_number   1
_chemical_formula_structural   Mn
_chemical_formula_sum   Mn4
_cell_volume   365.61581510
_cell_formula_units_Z   4
loop_
 _symmetry_equiv_pos_site_id
 _symmetry_equiv_pos_as_xyz
  1  'x, y, z'
loop_
 _atom_site_type_symbol
 _atom_site_label
 _atom_site_symmetry_multiplicity
 _atom_site_fract_x
 _atom_site_fract_y
 _atom_site_fract_z
 _atom_site_occupancy
  Mn  Mn0  1  0.98623700  0.29031800  0.80678000  1.0
  Mn  Mn1  1  0.98628900  0.70973600  0.19319400  1.0
  Mn  Mn2  1  0.48621500  0.09709600  0.19339500  1.0
  Mn  Mn3  1  0.48622300  0.90284500  0.80662000  1.0
