# generated using pymatgen
data_Mn
_symmetry_space_group_name_H-M   'P 1'
_cell_length_a   5.21209203
_cell_length_b   8.46580913
_cell_length_c   10.92332119
_cell_angle_alpha   89.98047842
_cell_angle_beta   89.98911341
_cell_angle_gamma   90.00030687
_symmetry_Int_Tables_number   1
_chemical_formula_structural   Mn
_chemical_formula_sum   Mn4
_cell_volume   481.98688255
_cell_formula_units_Z   4
loop_
 _symmetry_equiv_pos_site_id
 _symmetry_equiv_pos_as_xyz
  1  'x, y, z'
loop_
 _atom_site_type_symbol
 _atom_site_label
 _atom_site_symmetry_multiplicity
 _atom_site_fract_x
 _atom_site_fract_y
 _atom_site_fract_z
 _atom_site_occupancy
  Mn  Mn0  1  0.03633900  0.64965800  0.61857800  1.0
  Mn  Mn1  1  0.03651300  0.85041600  0.11856600  1.0
  Mn  Mn2  1  0.53664100  0.14949000  0.88129100  1.0
  Mn  Mn3  1  0.53639500  0.35023000  0.38159800  1.0
