# generated using pymatgen
data_Mn
_symmetry_space_group_name_H-M   'P 1'
_cell_length_a   7.97037700
_cell_length_b   8.83785500
_cell_length_c   15.39420807
_cell_angle_alpha   90.84017945
_cell_angle_beta   90.00000000
_cell_angle_gamma   90.00000000
_symmetry_Int_Tables_number   1
_chemical_formula_structural   Mn
_chemical_formula_sum   Mn12
_cell_volume   1084.26738316
_cell_formula_units_Z   12
loop_
 _symmetry_equiv_pos_site_id
 _symmetry_equiv_pos_as_xyz
  1  'x, y, z'
loop_
 _atom_site_type_symbol
 _atom_site_label
 _atom_site_symmetry_multiplicity
 _atom_site_fract_x
 _atom_site_fract_y
 _atom_site_fract_z
 _atom_site_occupancy
  Mn  Mn0  1  0.66479300  0.05710900  0.40484600  1.0
  Mn  Mn1  1  0.82308600  0.07788900  0.76302800  1.0
  Mn  Mn2  1  0.66457100  0.09812900  0.08126100  1.0
  Mn  Mn3  1  0.16457100  0.40187100  0.41873900  1.0
  Mn  Mn4  1  0.32308600  0.42211100  0.73697200  1.0
  Mn  Mn5  1  0.16479300  0.44289100  0.09515400  1.0
  Mn  Mn6  1  0.83520700  0.55710900  0.90484600  1.0
  Mn  Mn7  1  0.67691400  0.57788900  0.26302800  1.0
  Mn  Mn8  1  0.83542900  0.59812900  0.58126100  1.0
  Mn  Mn9  1  0.33542900  0.90187100  0.91873900  1.0
  Mn  Mn10  1  0.17691400  0.92211100  0.23697200  1.0
  Mn  Mn11  1  0.33520700  0.94289100  0.59515400  1.0
