# generated using pymatgen
data_Mn
_symmetry_space_group_name_H-M   'P 1'
_cell_length_a   5.09575699
_cell_length_b   5.09577751
_cell_length_c   6.35587800
_cell_angle_alpha   90.00075555
_cell_angle_beta   90.00034474
_cell_angle_gamma   66.92785302
_symmetry_Int_Tables_number   1
_chemical_formula_structural   Mn
_chemical_formula_sum   Mn2
_cell_volume   151.84072368
_cell_formula_units_Z   2
loop_
 _symmetry_equiv_pos_site_id
 _symmetry_equiv_pos_as_xyz
  1  'x, y, z'
loop_
 _atom_site_type_symbol
 _atom_site_label
 _atom_site_symmetry_multiplicity
 _atom_site_fract_x
 _atom_site_fract_y
 _atom_site_fract_z
 _atom_site_occupancy
  Mn  Mn0  1  0.49995000  0.00001300  0.00000300  1.0
  Mn  Mn1  1  0.49997950  0.00003350  0.50000000  1.0
