# generated using pymatgen
data_Mn
_symmetry_space_group_name_H-M   'P 1'
_cell_length_a   5.88452900
_cell_length_b   10.00689500
_cell_length_c   11.01167900
_cell_angle_alpha   90.00000000
_cell_angle_beta   90.00000000
_cell_angle_gamma   91.27279202
_symmetry_Int_Tables_number   1
_chemical_formula_structural   Mn
_chemical_formula_sum   Mn8
_cell_volume   648.27224249
_cell_formula_units_Z   8
loop_
 _symmetry_equiv_pos_site_id
 _symmetry_equiv_pos_as_xyz
  1  'x, y, z'
loop_
 _atom_site_type_symbol
 _atom_site_label
 _atom_site_symmetry_multiplicity
 _atom_site_fract_x
 _atom_site_fract_y
 _atom_site_fract_z
 _atom_site_occupancy
  Mn  Mn0  1  0.15072600  0.51124400  0.12605700  1.0
  Mn  Mn1  1  0.15072600  0.01124400  0.37394300  1.0
  Mn  Mn2  1  0.37799800  0.76380900  0.59563000  1.0
  Mn  Mn3  1  0.37799800  0.26380900  0.90437000  1.0
  Mn  Mn4  1  0.62200200  0.73619100  0.09563000  1.0
  Mn  Mn5  1  0.62200200  0.23619100  0.40437000  1.0
  Mn  Mn6  1  0.84927400  0.98875600  0.62605700  1.0
  Mn  Mn7  1  0.84927400  0.48875600  0.87394300  1.0
