# generated using pymatgen
data_Mn
_symmetry_space_group_name_H-M   'P 1'
_cell_length_a   7.26784600
_cell_length_b   7.26791300
_cell_length_c   7.26792200
_cell_angle_alpha   90.00029957
_cell_angle_beta   89.99982656
_cell_angle_gamma   89.99990540
_symmetry_Int_Tables_number   1
_chemical_formula_structural   Mn
_chemical_formula_sum   Mn4
_cell_volume   383.90670226
_cell_formula_units_Z   4
loop_
 _symmetry_equiv_pos_site_id
 _symmetry_equiv_pos_as_xyz
  1  'x, y, z'
loop_
 _atom_site_type_symbol
 _atom_site_label
 _atom_site_symmetry_multiplicity
 _atom_site_fract_x
 _atom_site_fract_y
 _atom_site_fract_z
 _atom_site_occupancy
  Mn  Mn0  1  0.25640100  0.74360600  0.75642200  1.0
  Mn  Mn1  1  0.74360100  0.75640200  0.25640200  1.0
  Mn  Mn2  1  0.24362700  0.24361700  0.24360500  1.0
  Mn  Mn3  1  0.75641500  0.25639900  0.74359400  1.0
