# generated using pymatgen
data_Mn
_symmetry_space_group_name_H-M   'P 1'
_cell_length_a   10.08944400
_cell_length_b   10.23570052
_cell_length_c   17.52494783
_cell_angle_alpha   74.13316337
_cell_angle_beta   73.27015173
_cell_angle_gamma   60.47155674
_symmetry_Int_Tables_number   1
_chemical_formula_structural   Mn
_chemical_formula_sum   Mn16
_cell_volume   1489.20533169
_cell_formula_units_Z   16
loop_
 _symmetry_equiv_pos_site_id
 _symmetry_equiv_pos_as_xyz
  1  'x, y, z'
loop_
 _atom_site_type_symbol
 _atom_site_label
 _atom_site_symmetry_multiplicity
 _atom_site_fract_x
 _atom_site_fract_y
 _atom_site_fract_z
 _atom_site_occupancy
  Mn  Mn0  1  0.50405100  0.55942400  0.81191500  1.0
  Mn  Mn1  1  0.00377600  0.05393500  0.81255600  1.0
  Mn  Mn2  1  0.12973300  0.55393500  0.31255600  1.0
  Mn  Mn3  1  0.81548200  0.38019200  0.06252200  1.0
  Mn  Mn4  1  0.05873600  0.49782800  0.81277500  1.0
  Mn  Mn5  1  0.55781800  0.00280300  0.81361000  1.0
  Mn  Mn6  1  0.87526300  0.82016100  0.06160700  1.0
  Mn  Mn7  1  0.24296900  0.32016100  0.56160700  1.0
  Mn  Mn8  1  0.23939100  0.82164900  0.56152100  1.0
  Mn  Mn9  1  0.12461000  0.05942400  0.31191500  1.0
  Mn  Mn10  1  0.74180400  0.88019200  0.56252200  1.0
  Mn  Mn11  1  0.62576900  0.50280300  0.31361000  1.0
  Mn  Mn12  1  0.74103900  0.38158200  0.56211600  1.0
  Mn  Mn13  1  0.31526300  0.88158200  0.06211600  1.0
  Mn  Mn14  1  0.37743900  0.32164900  0.06152100  1.0
  Mn  Mn15  1  0.63066100  0.99782800  0.31277500  1.0
