# generated using pymatgen
data_Mn
_symmetry_space_group_name_H-M   'P 1'
_cell_length_a   5.24614100
_cell_length_b   8.49945600
_cell_length_c   8.81843273
_cell_angle_alpha   108.88067612
_cell_angle_beta   90.00000000
_cell_angle_gamma   90.00000000
_symmetry_Int_Tables_number   1
_chemical_formula_structural   Mn
_chemical_formula_sum   Mn4
_cell_volume   372.05139558
_cell_formula_units_Z   4
loop_
 _symmetry_equiv_pos_site_id
 _symmetry_equiv_pos_as_xyz
  1  'x, y, z'
loop_
 _atom_site_type_symbol
 _atom_site_label
 _atom_site_symmetry_multiplicity
 _atom_site_fract_x
 _atom_site_fract_y
 _atom_site_fract_z
 _atom_site_occupancy
  Mn  Mn0  1  0.32343300  0.00373800  0.74550300  1.0
  Mn  Mn1  1  0.18094800  0.66953900  0.26773900  1.0
  Mn  Mn2  1  0.67656700  0.50373800  0.74550300  1.0
  Mn  Mn3  1  0.81905200  0.16953900  0.26773900  1.0
