# generated using pymatgen
data_Mn
_symmetry_space_group_name_H-M   'P 1'
_cell_length_a   5.54552400
_cell_length_b   5.68131802
_cell_length_c   10.67574403
_cell_angle_alpha   89.99115916
_cell_angle_beta   89.99990004
_cell_angle_gamma   90.00016333
_symmetry_Int_Tables_number   1
_chemical_formula_structural   Mn
_chemical_formula_sum   Mn4
_cell_volume   336.34876430
_cell_formula_units_Z   4
loop_
 _symmetry_equiv_pos_site_id
 _symmetry_equiv_pos_as_xyz
  1  'x, y, z'
loop_
 _atom_site_type_symbol
 _atom_site_label
 _atom_site_symmetry_multiplicity
 _atom_site_fract_x
 _atom_site_fract_y
 _atom_site_fract_z
 _atom_site_occupancy
  Mn  Mn0  1  0.97673600  0.07738500  0.82505400  1.0
  Mn  Mn1  1  0.47679400  0.57673400  0.67521500  1.0
  Mn  Mn2  1  0.97678700  0.42326100  0.32478200  1.0
  Mn  Mn3  1  0.47673600  0.92249100  0.17484300  1.0
