# generated using pymatgen
data_Mn
_symmetry_space_group_name_H-M   'P 1'
_cell_length_a   5.67375800
_cell_length_b   8.41879700
_cell_length_c   19.84523900
_cell_angle_alpha   90.00000000
_cell_angle_beta   90.00000000
_cell_angle_gamma   90.00000000
_symmetry_Int_Tables_number   1
_chemical_formula_structural   Mn
_chemical_formula_sum   Mn12
_cell_volume   947.93198910
_cell_formula_units_Z   12
loop_
 _symmetry_equiv_pos_site_id
 _symmetry_equiv_pos_as_xyz
  1  'x, y, z'
loop_
 _atom_site_type_symbol
 _atom_site_label
 _atom_site_symmetry_multiplicity
 _atom_site_fract_x
 _atom_site_fract_y
 _atom_site_fract_z
 _atom_site_occupancy
  Mn  Mn0  1  0.75406200  0.96443600  0.06620900  1.0
  Mn  Mn1  1  0.20786800  0.43132600  0.10158800  1.0
  Mn  Mn2  1  0.74581600  0.56060200  0.23301300  1.0
  Mn  Mn3  1  0.24581600  0.06060200  0.26698700  1.0
  Mn  Mn4  1  0.70786800  0.93132600  0.39841200  1.0
  Mn  Mn5  1  0.25406200  0.46443600  0.43379100  1.0
  Mn  Mn6  1  0.75406200  0.53556400  0.56620900  1.0
  Mn  Mn7  1  0.20786800  0.06867400  0.60158800  1.0
  Mn  Mn8  1  0.74581600  0.93939800  0.73301300  1.0
  Mn  Mn9  1  0.24581600  0.43939800  0.76698700  1.0
  Mn  Mn10  1  0.70786800  0.56867400  0.89841200  1.0
  Mn  Mn11  1  0.25406200  0.03556400  0.93379100  1.0
