# generated using pymatgen
data_Mn
_symmetry_space_group_name_H-M   'P 1'
_cell_length_a   5.15847000
_cell_length_b   10.25369100
_cell_length_c   13.93172000
_cell_angle_alpha   90.00000000
_cell_angle_beta   90.00000000
_cell_angle_gamma   90.00000000
_symmetry_Int_Tables_number   1
_chemical_formula_structural   Mn
_chemical_formula_sum   Mn8
_cell_volume   736.89544533
_cell_formula_units_Z   8
loop_
 _symmetry_equiv_pos_site_id
 _symmetry_equiv_pos_as_xyz
  1  'x, y, z'
loop_
 _atom_site_type_symbol
 _atom_site_label
 _atom_site_symmetry_multiplicity
 _atom_site_fract_x
 _atom_site_fract_y
 _atom_site_fract_z
 _atom_site_occupancy
  Mn  Mn0  1  0.05919800  0.03436200  0.24712700  1.0
  Mn  Mn1  1  0.55668100  0.21635600  0.99872200  1.0
  Mn  Mn2  1  0.55668100  0.28364400  0.49872200  1.0
  Mn  Mn3  1  0.05919800  0.46563800  0.74712700  1.0
  Mn  Mn4  1  0.94080200  0.53436200  0.24712700  1.0
  Mn  Mn5  1  0.44331900  0.71635600  0.99872200  1.0
  Mn  Mn6  1  0.44331900  0.78364400  0.49872200  1.0
  Mn  Mn7  1  0.94080200  0.96563800  0.74712700  1.0
