# generated using pymatgen
data_Mn
_symmetry_space_group_name_H-M   'P 1'
_cell_length_a   5.69657300
_cell_length_b   6.33341707
_cell_length_c   9.32069932
_cell_angle_alpha   76.75482805
_cell_angle_beta   84.48018493
_cell_angle_gamma   75.06026885
_symmetry_Int_Tables_number   1
_chemical_formula_structural   Mn
_chemical_formula_sum   Mn4
_cell_volume   316.02272098
_cell_formula_units_Z   4
loop_
 _symmetry_equiv_pos_site_id
 _symmetry_equiv_pos_as_xyz
  1  'x, y, z'
loop_
 _atom_site_type_symbol
 _atom_site_label
 _atom_site_symmetry_multiplicity
 _atom_site_fract_x
 _atom_site_fract_y
 _atom_site_fract_z
 _atom_site_occupancy
  Mn  Mn0  1  0.73653200  0.33413500  0.91131500  1.0
  Mn  Mn1  1  0.15512800  0.56762200  0.69656600  1.0
  Mn  Mn2  1  0.84487200  0.43237800  0.30343400  1.0
  Mn  Mn3  1  0.26346800  0.66586500  0.08868500  1.0
