# generated using pymatgen
data_Mn
_symmetry_space_group_name_H-M   'P 1'
_cell_length_a   4.98018100
_cell_length_b   7.63015800
_cell_length_c   18.89728787
_cell_angle_alpha   91.23585816
_cell_angle_beta   90.00000000
_cell_angle_gamma   90.00000000
_symmetry_Int_Tables_number   1
_chemical_formula_structural   Mn
_chemical_formula_sum   Mn8
_cell_volume   717.92173243
_cell_formula_units_Z   8
loop_
 _symmetry_equiv_pos_site_id
 _symmetry_equiv_pos_as_xyz
  1  'x, y, z'
loop_
 _atom_site_type_symbol
 _atom_site_label
 _atom_site_symmetry_multiplicity
 _atom_site_fract_x
 _atom_site_fract_y
 _atom_site_fract_z
 _atom_site_occupancy
  Mn  Mn0  1  0.22890700  0.82442800  0.77318600  1.0
  Mn  Mn1  1  0.27109300  0.82442800  0.27318600  1.0
  Mn  Mn2  1  0.77731100  0.67331000  0.51935400  1.0
  Mn  Mn3  1  0.72268900  0.67331000  0.01935400  1.0
  Mn  Mn4  1  0.27731100  0.32669000  0.98064600  1.0
  Mn  Mn5  1  0.22268900  0.32669000  0.48064600  1.0
  Mn  Mn6  1  0.72890700  0.17557200  0.72681400  1.0
  Mn  Mn7  1  0.77109300  0.17557200  0.22681400  1.0
