# generated using pymatgen
data_Mn
_symmetry_space_group_name_H-M   'P 1'
_cell_length_a   5.09761597
_cell_length_b   5.09760932
_cell_length_c   6.32475800
_cell_angle_alpha   89.99880910
_cell_angle_beta   89.99894535
_cell_angle_gamma   67.04677875
_symmetry_Int_Tables_number   1
_chemical_formula_structural   Mn
_chemical_formula_sum   Mn2
_cell_volume   151.34009299
_cell_formula_units_Z   2
loop_
 _symmetry_equiv_pos_site_id
 _symmetry_equiv_pos_as_xyz
  1  'x, y, z'
loop_
 _atom_site_type_symbol
 _atom_site_label
 _atom_site_symmetry_multiplicity
 _atom_site_fract_x
 _atom_site_fract_y
 _atom_site_fract_z
 _atom_site_occupancy
  Mn  Mn0  1  0.50005000  0.99999400  0.50016700  1.0
  Mn  Mn1  1  0.50011100  0.00013000  0.99982850  1.0
