# generated using pymatgen
data_Mn
_symmetry_space_group_name_H-M   'P 1'
_cell_length_a   4.99582701
_cell_length_b   7.95004642
_cell_length_c   8.50466111
_cell_angle_alpha   78.47908713
_cell_angle_beta   90.00278846
_cell_angle_gamma   90.00670835
_symmetry_Int_Tables_number   1
_chemical_formula_structural   Mn
_chemical_formula_sum   Mn4
_cell_volume   330.97446721
_cell_formula_units_Z   4
loop_
 _symmetry_equiv_pos_site_id
 _symmetry_equiv_pos_as_xyz
  1  'x, y, z'
loop_
 _atom_site_type_symbol
 _atom_site_label
 _atom_site_symmetry_multiplicity
 _atom_site_fract_x
 _atom_site_fract_y
 _atom_site_fract_z
 _atom_site_occupancy
  Mn  Mn0  1  0.98135500  0.03065700  0.82228000  1.0
  Mn  Mn1  1  0.48119200  0.96943500  0.17764500  1.0
  Mn  Mn2  1  0.39848700  0.48774700  0.27536800  1.0
  Mn  Mn3  1  0.89879900  0.51240600  0.72469100  1.0
