# generated using pymatgen
data_Mn
_symmetry_space_group_name_H-M   'P 1'
_cell_length_a   5.30988800
_cell_length_b   8.11062500
_cell_length_c   8.60430100
_cell_angle_alpha   89.99928014
_cell_angle_beta   89.99964343
_cell_angle_gamma   90.00025664
_symmetry_Int_Tables_number   1
_chemical_formula_structural   Mn
_chemical_formula_sum   Mn4
_cell_volume   370.55721812
_cell_formula_units_Z   4
loop_
 _symmetry_equiv_pos_site_id
 _symmetry_equiv_pos_as_xyz
  1  'x, y, z'
loop_
 _atom_site_type_symbol
 _atom_site_label
 _atom_site_symmetry_multiplicity
 _atom_site_fract_x
 _atom_site_fract_y
 _atom_site_fract_z
 _atom_site_occupancy
  Mn  Mn0  1  0.96938100  0.17276700  0.94074500  1.0
  Mn  Mn1  1  0.96939100  0.67277500  0.55923900  1.0
  Mn  Mn2  1  0.46937800  0.32725400  0.44075700  1.0
  Mn  Mn3  1  0.46933600  0.82722700  0.05924300  1.0
