# generated using pymatgen
data_Mn
_symmetry_space_group_name_H-M   'P 1'
_cell_length_a   5.78497709
_cell_length_b   7.82114189
_cell_length_c   8.75931703
_cell_angle_alpha   105.79974529
_cell_angle_beta   98.40801401
_cell_angle_gamma   97.88569069
_symmetry_Int_Tables_number   1
_chemical_formula_structural   Mn
_chemical_formula_sum   Mn4
_cell_volume   370.66448279
_cell_formula_units_Z   4
loop_
 _symmetry_equiv_pos_site_id
 _symmetry_equiv_pos_as_xyz
  1  'x, y, z'
loop_
 _atom_site_type_symbol
 _atom_site_label
 _atom_site_symmetry_multiplicity
 _atom_site_fract_x
 _atom_site_fract_y
 _atom_site_fract_z
 _atom_site_occupancy
  Mn  Mn0  1  0.49811000  0.01287900  0.73599800  1.0
  Mn  Mn1  1  0.50205300  0.98734700  0.26410200  1.0
  Mn  Mn2  1  0.61353000  0.45676700  0.33056200  1.0
  Mn  Mn3  1  0.38653000  0.54332100  0.66949400  1.0
