# generated using pymatgen
data_Mn
_symmetry_space_group_name_H-M   'P 1'
_cell_length_a   4.91916700
_cell_length_b   8.01127600
_cell_length_c   8.58073670
_cell_angle_alpha   99.30264668
_cell_angle_beta   90.00000000
_cell_angle_gamma   90.00000000
_symmetry_Int_Tables_number   1
_chemical_formula_structural   Mn
_chemical_formula_sum   Mn4
_cell_volume   333.70922469
_cell_formula_units_Z   4
loop_
 _symmetry_equiv_pos_site_id
 _symmetry_equiv_pos_as_xyz
  1  'x, y, z'
loop_
 _atom_site_type_symbol
 _atom_site_label
 _atom_site_symmetry_multiplicity
 _atom_site_fract_x
 _atom_site_fract_y
 _atom_site_fract_z
 _atom_site_occupancy
  Mn  Mn0  1  0.42513300  0.47761300  0.71591200  1.0
  Mn  Mn1  1  0.99149600  0.00643500  0.18163400  1.0
  Mn  Mn2  1  0.49149600  0.99356500  0.81836600  1.0
  Mn  Mn3  1  0.92513300  0.52238700  0.28408800  1.0
