# generated using pymatgen
data_Mn
_symmetry_space_group_name_H-M   'P 1'
_cell_length_a   4.82370800
_cell_length_b   6.48052300
_cell_length_c   10.30307200
_cell_angle_alpha   89.99996563
_cell_angle_beta   89.99999444
_cell_angle_gamma   90.00005028
_symmetry_Int_Tables_number   1
_chemical_formula_structural   Mn
_chemical_formula_sum   Mn4
_cell_volume   322.07558277
_cell_formula_units_Z   4
loop_
 _symmetry_equiv_pos_site_id
 _symmetry_equiv_pos_as_xyz
  1  'x, y, z'
loop_
 _atom_site_type_symbol
 _atom_site_label
 _atom_site_symmetry_multiplicity
 _atom_site_fract_x
 _atom_site_fract_y
 _atom_site_fract_z
 _atom_site_occupancy
  Mn  Mn0  1  0.00000100  0.50000200  0.00000100  1.0
  Mn  Mn1  1  0.49999900  0.99999800  0.50000000  1.0
  Mn  Mn2  1  0.00000100  0.99999900  0.00000000  1.0
  Mn  Mn3  1  0.50000000  0.50000000  0.50000000  1.0
