# generated using pymatgen
data_Mn
_symmetry_space_group_name_H-M   'P 1'
_cell_length_a   5.27207485
_cell_length_b   6.18866976
_cell_length_c   9.66910737
_cell_angle_alpha   90.00000000
_cell_angle_beta   95.33179026
_cell_angle_gamma   90.00000000
_symmetry_Int_Tables_number   1
_chemical_formula_structural   Mn
_chemical_formula_sum   Mn4
_cell_volume   314.11025637
_cell_formula_units_Z   4
loop_
 _symmetry_equiv_pos_site_id
 _symmetry_equiv_pos_as_xyz
  1  'x, y, z'
loop_
 _atom_site_type_symbol
 _atom_site_label
 _atom_site_symmetry_multiplicity
 _atom_site_fract_x
 _atom_site_fract_y
 _atom_site_fract_z
 _atom_site_occupancy
  Mn  Mn0  1  0.21344280  0.61124928  0.66356869  1.0
  Mn  Mn1  1  0.28655681  0.11124885  0.83643121  1.0
  Mn  Mn2  1  0.71344242  0.88875040  0.16356860  1.0
  Mn  Mn3  1  0.78655643  0.38875158  0.33643112  1.0
