# generated using pymatgen
data_Mn
_symmetry_space_group_name_H-M   'P 1'
_cell_length_a   4.99642900
_cell_length_b   6.46249104
_cell_length_c   9.45310006
_cell_angle_alpha   90.01312118
_cell_angle_beta   90.00055405
_cell_angle_gamma   89.99956931
_symmetry_Int_Tables_number   1
_chemical_formula_structural   Mn
_chemical_formula_sum   Mn4
_cell_volume   305.23470972
_cell_formula_units_Z   4
loop_
 _symmetry_equiv_pos_site_id
 _symmetry_equiv_pos_as_xyz
  1  'x, y, z'
loop_
 _atom_site_type_symbol
 _atom_site_label
 _atom_site_symmetry_multiplicity
 _atom_site_fract_x
 _atom_site_fract_y
 _atom_site_fract_z
 _atom_site_occupancy
  Mn  Mn0  1  0.00011600  0.50011100  0.99995100  1.0
  Mn  Mn1  1  0.49996800  0.49977200  0.50024800  1.0
  Mn  Mn2  1  0.99988800  0.00007600  0.00011500  1.0
  Mn  Mn3  1  0.49979100  0.99998000  0.49987900  1.0
