# generated using pymatgen
data_Mn
_symmetry_space_group_name_H-M   'P 1'
_cell_length_a   4.90192600
_cell_length_b   7.92596400
_cell_length_c   17.35440600
_cell_angle_alpha   90.00000000
_cell_angle_beta   90.00000000
_cell_angle_gamma   90.00000000
_symmetry_Int_Tables_number   1
_chemical_formula_structural   Mn
_chemical_formula_sum   Mn8
_cell_volume   674.26186833
_cell_formula_units_Z   8
loop_
 _symmetry_equiv_pos_site_id
 _symmetry_equiv_pos_as_xyz
  1  'x, y, z'
loop_
 _atom_site_type_symbol
 _atom_site_label
 _atom_site_symmetry_multiplicity
 _atom_site_fract_x
 _atom_site_fract_y
 _atom_site_fract_z
 _atom_site_occupancy
  Mn  Mn0  1  0.28170300  0.07607300  0.25681400  1.0
  Mn  Mn1  1  0.27724300  0.15081100  0.05247000  1.0
  Mn  Mn2  1  0.77724300  0.34918900  0.55247000  1.0
  Mn  Mn3  1  0.78170300  0.42392700  0.75681400  1.0
  Mn  Mn4  1  0.28170300  0.57607300  0.24318600  1.0
  Mn  Mn5  1  0.27724300  0.65081100  0.44753000  1.0
  Mn  Mn6  1  0.77724300  0.84918900  0.94753000  1.0
  Mn  Mn7  1  0.78170300  0.92392700  0.74318600  1.0
