# generated using pymatgen
data_Mn
_symmetry_space_group_name_H-M   'P 1'
_cell_length_a   5.33373500
_cell_length_b   8.24063361
_cell_length_c   8.60571506
_cell_angle_alpha   105.99816156
_cell_angle_beta   89.99961680
_cell_angle_gamma   89.99938865
_symmetry_Int_Tables_number   1
_chemical_formula_structural   Mn
_chemical_formula_sum   Mn4
_cell_volume   363.60063630
_cell_formula_units_Z   4
loop_
 _symmetry_equiv_pos_site_id
 _symmetry_equiv_pos_as_xyz
  1  'x, y, z'
loop_
 _atom_site_type_symbol
 _atom_site_label
 _atom_site_symmetry_multiplicity
 _atom_site_fract_x
 _atom_site_fract_y
 _atom_site_fract_z
 _atom_site_occupancy
  Mn  Mn0  1  0.32357800  0.48944300  0.26764600  1.0
  Mn  Mn1  1  0.67643700  0.48945100  0.76763000  1.0
  Mn  Mn2  1  0.83955100  0.96190500  0.07020700  1.0
  Mn  Mn3  1  0.16046200  0.96188300  0.57017200  1.0
