# generated using pymatgen
data_Mn
_symmetry_space_group_name_H-M   'P 1'
_cell_length_a   4.79202900
_cell_length_b   6.17859100
_cell_length_c   10.59418400
_cell_angle_alpha   89.99990496
_cell_angle_beta   89.99995445
_cell_angle_gamma   90.00006369
_symmetry_Int_Tables_number   1
_chemical_formula_structural   Mn
_chemical_formula_sum   Mn4
_cell_volume   313.67246481
_cell_formula_units_Z   4
loop_
 _symmetry_equiv_pos_site_id
 _symmetry_equiv_pos_as_xyz
  1  'x, y, z'
loop_
 _atom_site_type_symbol
 _atom_site_label
 _atom_site_symmetry_multiplicity
 _atom_site_fract_x
 _atom_site_fract_y
 _atom_site_fract_z
 _atom_site_occupancy
  Mn  Mn0  1  0.97254900  0.25003000  0.71883700  1.0
  Mn  Mn1  1  0.52746800  0.25001200  0.21885700  1.0
  Mn  Mn2  1  0.02742000  0.74997000  0.28117100  1.0
  Mn  Mn3  1  0.47258000  0.74996300  0.78117600  1.0
