# generated using pymatgen
data_Mn
_symmetry_space_group_name_H-M   'P 1'
_cell_length_a   5.37781901
_cell_length_b   8.84537102
_cell_length_c   9.17202001
_cell_angle_alpha   90.00445950
_cell_angle_beta   89.99938690
_cell_angle_gamma   89.99352805
_symmetry_Int_Tables_number   1
_chemical_formula_structural   Mn
_chemical_formula_sum   Mn4
_cell_volume   436.30202188
_cell_formula_units_Z   4
loop_
 _symmetry_equiv_pos_site_id
 _symmetry_equiv_pos_as_xyz
  1  'x, y, z'
loop_
 _atom_site_type_symbol
 _atom_site_label
 _atom_site_symmetry_multiplicity
 _atom_site_fract_x
 _atom_site_fract_y
 _atom_site_fract_z
 _atom_site_occupancy
  Mn  Mn0  1  0.24998500  0.14106100  0.59953700  1.0
  Mn  Mn1  1  0.74993700  0.64101800  0.90051700  1.0
  Mn  Mn2  1  0.25006900  0.35898800  0.09952600  1.0
  Mn  Mn3  1  0.75007200  0.85905800  0.40050400  1.0
