# generated using pymatgen
data_Mn
_symmetry_space_group_name_H-M   'P 1'
_cell_length_a   5.06954000
_cell_length_b   6.42300500
_cell_length_c   9.39589000
_cell_angle_alpha   89.99982542
_cell_angle_beta   89.99983551
_cell_angle_gamma   90.00000000
_symmetry_Int_Tables_number   1
_chemical_formula_structural   Mn
_chemical_formula_sum   Mn4
_cell_volume   305.94597071
_cell_formula_units_Z   4
loop_
 _symmetry_equiv_pos_site_id
 _symmetry_equiv_pos_as_xyz
  1  'x, y, z'
loop_
 _atom_site_type_symbol
 _atom_site_label
 _atom_site_symmetry_multiplicity
 _atom_site_fract_x
 _atom_site_fract_y
 _atom_site_fract_z
 _atom_site_occupancy
  Mn  Mn0  1  0.02645800  0.74998900  0.35250500  1.0
  Mn  Mn1  1  0.52653700  0.25000800  0.14751200  1.0
  Mn  Mn2  1  0.47324000  0.75002900  0.85255100  1.0
  Mn  Mn3  1  0.97325500  0.24996800  0.64745700  1.0
