# generated using pymatgen
data_Mn
_symmetry_space_group_name_H-M   'P 1'
_cell_length_a   5.89877200
_cell_length_b   7.66723700
_cell_length_c   13.95145500
_cell_angle_alpha   90.00000000
_cell_angle_beta   90.00000000
_cell_angle_gamma   90.00000000
_symmetry_Int_Tables_number   1
_chemical_formula_structural   Mn
_chemical_formula_sum   Mn8
_cell_volume   630.98640261
_cell_formula_units_Z   8
loop_
 _symmetry_equiv_pos_site_id
 _symmetry_equiv_pos_as_xyz
  1  'x, y, z'
loop_
 _atom_site_type_symbol
 _atom_site_label
 _atom_site_symmetry_multiplicity
 _atom_site_fract_x
 _atom_site_fract_y
 _atom_site_fract_z
 _atom_site_occupancy
  Mn  Mn0  1  0.14802800  0.18075100  0.20769300  1.0
  Mn  Mn1  1  0.64802800  0.18075100  0.29230700  1.0
  Mn  Mn2  1  0.64802800  0.31924900  0.79230700  1.0
  Mn  Mn3  1  0.14802800  0.31924900  0.70769300  1.0
  Mn  Mn4  1  0.35197200  0.68075100  0.20769300  1.0
  Mn  Mn5  1  0.85197200  0.68075100  0.29230700  1.0
  Mn  Mn6  1  0.35197200  0.81924900  0.70769300  1.0
  Mn  Mn7  1  0.85197200  0.81924900  0.79230700  1.0
