# generated using pymatgen
data_Mn
_symmetry_space_group_name_H-M   'P 1'
_cell_length_a   5.11492600
_cell_length_b   6.90449600
_cell_length_c   10.29321000
_cell_angle_alpha   90.00000000
_cell_angle_beta   90.00000000
_cell_angle_gamma   90.00000000
_symmetry_Int_Tables_number   1
_chemical_formula_structural   Mn
_chemical_formula_sum   Mn4
_cell_volume   363.51486136
_cell_formula_units_Z   4
loop_
 _symmetry_equiv_pos_site_id
 _symmetry_equiv_pos_as_xyz
  1  'x, y, z'
loop_
 _atom_site_type_symbol
 _atom_site_label
 _atom_site_symmetry_multiplicity
 _atom_site_fract_x
 _atom_site_fract_y
 _atom_site_fract_z
 _atom_site_occupancy
  Mn  Mn0  1  0.68850300  0.71291200  0.15320500  1.0
  Mn  Mn1  1  0.18850300  0.21291200  0.34679500  1.0
  Mn  Mn2  1  0.81149700  0.71291200  0.65320500  1.0
  Mn  Mn3  1  0.31149700  0.21291200  0.84679500  1.0
