# generated using pymatgen
data_Mn
_symmetry_space_group_name_H-M   'P 1'
_cell_length_a   5.05638885
_cell_length_b   5.05845615
_cell_length_c   8.65109831
_cell_angle_alpha   74.94809759
_cell_angle_beta   74.95565706
_cell_angle_gamma   61.24593850
_symmetry_Int_Tables_number   1
_chemical_formula_structural   Mn
_chemical_formula_sum   Mn2
_cell_volume   184.94923695
_cell_formula_units_Z   2
loop_
 _symmetry_equiv_pos_site_id
 _symmetry_equiv_pos_as_xyz
  1  'x, y, z'
loop_
 _atom_site_type_symbol
 _atom_site_label
 _atom_site_symmetry_multiplicity
 _atom_site_fract_x
 _atom_site_fract_y
 _atom_site_fract_z
 _atom_site_occupancy
  Mn  Mn0  1  0.80329700  0.69274750  0.75190550  1.0
  Mn  Mn1  1  0.19324600  0.30198150  0.25169050  1.0
