# generated using pymatgen
data_Mn
_symmetry_space_group_name_H-M   'P 1'
_cell_length_a   7.58901600
_cell_length_b   7.58901544
_cell_length_c   9.69966200
_cell_angle_alpha   90.00000000
_cell_angle_beta   90.00000000
_cell_angle_gamma   120.00000244
_symmetry_Int_Tables_number   1
_chemical_formula_structural   Mn
_chemical_formula_sum   Mn6
_cell_volume   483.79138079
_cell_formula_units_Z   6
loop_
 _symmetry_equiv_pos_site_id
 _symmetry_equiv_pos_as_xyz
  1  'x, y, z'
loop_
 _atom_site_type_symbol
 _atom_site_label
 _atom_site_symmetry_multiplicity
 _atom_site_fract_x
 _atom_site_fract_y
 _atom_site_fract_z
 _atom_site_occupancy
  Mn  Mn0  1  0.95777000  0.53868900  0.51432300  1.0
  Mn  Mn1  1  0.46131000  0.41908000  0.51432300  1.0
  Mn  Mn2  1  0.58091900  0.04222900  0.51432300  1.0
  Mn  Mn3  1  0.53869000  0.95777100  0.01432300  1.0
  Mn  Mn4  1  0.41908100  0.46131100  0.01432300  1.0
  Mn  Mn5  1  0.04223000  0.58092000  0.01432300  1.0
