# generated using pymatgen
data_Mn
_symmetry_space_group_name_H-M   'P 1'
_cell_length_a   7.85145400
_cell_length_b   15.41878200
_cell_length_c   15.41878208
_cell_angle_alpha   119.99999983
_cell_angle_beta   90.00000000
_cell_angle_gamma   90.00000000
_symmetry_Int_Tables_number   1
_chemical_formula_structural   Mn
_chemical_formula_sum   Mn18
_cell_volume   1616.51917909
_cell_formula_units_Z   18
loop_
 _symmetry_equiv_pos_site_id
 _symmetry_equiv_pos_as_xyz
  1  'x, y, z'
loop_
 _atom_site_type_symbol
 _atom_site_label
 _atom_site_symmetry_multiplicity
 _atom_site_fract_x
 _atom_site_fract_y
 _atom_site_fract_z
 _atom_site_occupancy
  Mn  Mn0  1  0.20422600  0.90606300  0.77693600  1.0
  Mn  Mn1  1  0.23608700  0.89366200  0.46999900  1.0
  Mn  Mn2  1  0.72481000  0.75207000  0.55383900  1.0
  Mn  Mn3  1  0.72481000  0.80176900  0.24793000  1.0
  Mn  Mn4  1  0.23608700  0.53000100  0.42366300  1.0
  Mn  Mn5  1  0.20422600  0.87087300  0.09393800  1.0
  Mn  Mn6  1  0.23608700  0.57633700  0.10633800  1.0
  Mn  Mn7  1  0.70422600  0.77693500  0.87087200  1.0
  Mn  Mn8  1  0.72481000  0.44616100  0.19823100  1.0
  Mn  Mn9  1  0.22481000  0.55383900  0.80176900  1.0
  Mn  Mn10  1  0.20422600  0.22306500  0.12912800  1.0
  Mn  Mn11  1  0.73608700  0.42366300  0.89366200  1.0
  Mn  Mn12  1  0.70422600  0.12912700  0.90606200  1.0
  Mn  Mn13  1  0.73608700  0.46999900  0.57633700  1.0
  Mn  Mn14  1  0.22481000  0.19823100  0.75207000  1.0
  Mn  Mn15  1  0.22481000  0.24793000  0.44616100  1.0
  Mn  Mn16  1  0.73608700  0.10633800  0.53000100  1.0
  Mn  Mn17  1  0.70422600  0.09393700  0.22306400  1.0
