# generated using pymatgen
data_Mn
_symmetry_space_group_name_H-M   'P 1'
_cell_length_a   4.62858500
_cell_length_b   5.30893057
_cell_length_c   7.61077078
_cell_angle_alpha   90.20554615
_cell_angle_beta   104.19551713
_cell_angle_gamma   104.40424146
_symmetry_Int_Tables_number   1
_chemical_formula_structural   Mn
_chemical_formula_sum   Mn2
_cell_volume   175.19212107
_cell_formula_units_Z   2
loop_
 _symmetry_equiv_pos_site_id
 _symmetry_equiv_pos_as_xyz
  1  'x, y, z'
loop_
 _atom_site_type_symbol
 _atom_site_label
 _atom_site_symmetry_multiplicity
 _atom_site_fract_x
 _atom_site_fract_y
 _atom_site_fract_z
 _atom_site_occupancy
  Mn  Mn0  1  0.05439300  0.23816800  0.39434400  1.0
  Mn  Mn1  1  0.94560700  0.76183200  0.60565600  1.0
