# generated using pymatgen
data_Mn
_symmetry_space_group_name_H-M   'P 1'
_cell_length_a   5.15526584
_cell_length_b   5.15638209
_cell_length_c   16.16193496
_cell_angle_alpha   87.35124517
_cell_angle_beta   87.38537073
_cell_angle_gamma   71.35671739
_symmetry_Int_Tables_number   1
_chemical_formula_structural   Mn
_chemical_formula_sum   Mn4
_cell_volume   406.43043436
_cell_formula_units_Z   4
loop_
 _symmetry_equiv_pos_site_id
 _symmetry_equiv_pos_as_xyz
  1  'x, y, z'
loop_
 _atom_site_type_symbol
 _atom_site_label
 _atom_site_symmetry_multiplicity
 _atom_site_fract_x
 _atom_site_fract_y
 _atom_site_fract_z
 _atom_site_occupancy
  Mn  Mn0  1  0.92009000  0.37320700  0.41598600  1.0
  Mn  Mn1  1  0.07992800  0.62669200  0.58401600  1.0
  Mn  Mn2  1  0.62620000  0.08054900  0.08401600  1.0
  Mn  Mn3  1  0.37379600  0.91951900  0.91597700  1.0
