# generated using pymatgen
data_Mn
_symmetry_space_group_name_H-M   'P 1'
_cell_length_a   5.13934500
_cell_length_b   6.91101102
_cell_length_c   10.29236400
_cell_angle_alpha   90.00000000
_cell_angle_beta   90.00000000
_cell_angle_gamma   89.83113044
_symmetry_Int_Tables_number   1
_chemical_formula_structural   Mn
_chemical_formula_sum   Mn4
_cell_volume   365.56331652
_cell_formula_units_Z   4
loop_
 _symmetry_equiv_pos_site_id
 _symmetry_equiv_pos_as_xyz
  1  'x, y, z'
loop_
 _atom_site_type_symbol
 _atom_site_label
 _atom_site_symmetry_multiplicity
 _atom_site_fract_x
 _atom_site_fract_y
 _atom_site_fract_z
 _atom_site_occupancy
  Mn  Mn0  1  0.19887000  0.49975800  0.84745900  1.0
  Mn  Mn1  1  0.30113000  0.00024200  0.34745900  1.0
  Mn  Mn2  1  0.69887000  0.99975800  0.65254100  1.0
  Mn  Mn3  1  0.80113000  0.50024200  0.15254100  1.0
