# generated using pymatgen
data_Mn
_symmetry_space_group_name_H-M   'P 1'
_cell_length_a   4.40097100
_cell_length_b   4.86167800
_cell_length_c   14.70473500
_cell_angle_alpha   89.99998042
_cell_angle_beta   90.00000000
_cell_angle_gamma   90.00000000
_symmetry_Int_Tables_number   1
_chemical_formula_structural   Mn
_chemical_formula_sum   Mn4
_cell_volume   314.62403773
_cell_formula_units_Z   4
loop_
 _symmetry_equiv_pos_site_id
 _symmetry_equiv_pos_as_xyz
  1  'x, y, z'
loop_
 _atom_site_type_symbol
 _atom_site_label
 _atom_site_symmetry_multiplicity
 _atom_site_fract_x
 _atom_site_fract_y
 _atom_site_fract_z
 _atom_site_occupancy
  Mn  Mn0  1  0.00000100  0.25000600  0.07043700  1.0
  Mn  Mn1  1  0.49999300  0.75001600  0.42956800  1.0
  Mn  Mn2  1  0.99999900  0.75000100  0.92958600  1.0
  Mn  Mn3  1  0.50000100  0.25000000  0.57041600  1.0
