# generated using pymatgen
data_Mn
_symmetry_space_group_name_H-M   'P 1'
_cell_length_a   7.77550600
_cell_length_b   7.77550711
_cell_length_c   9.87430300
_cell_angle_alpha   90.00000000
_cell_angle_beta   90.00000000
_cell_angle_gamma   119.99999530
_symmetry_Int_Tables_number   1
_chemical_formula_structural   Mn
_chemical_formula_sum   Mn6
_cell_volume   517.00469368
_cell_formula_units_Z   6
loop_
 _symmetry_equiv_pos_site_id
 _symmetry_equiv_pos_as_xyz
  1  'x, y, z'
loop_
 _atom_site_type_symbol
 _atom_site_label
 _atom_site_symmetry_multiplicity
 _atom_site_fract_x
 _atom_site_fract_y
 _atom_site_fract_z
 _atom_site_occupancy
  Mn  Mn0  1  0.76758800  0.71475500  0.73221600  1.0
  Mn  Mn1  1  0.94716700  0.23241200  0.73221600  1.0
  Mn  Mn2  1  0.71475500  0.76758800  0.23221600  1.0
  Mn  Mn3  1  0.28524500  0.05283300  0.73221600  1.0
  Mn  Mn4  1  0.23241200  0.94716700  0.23221600  1.0
  Mn  Mn5  1  0.05283300  0.28524500  0.23221600  1.0
