# generated using pymatgen
data_Mn
_symmetry_space_group_name_H-M   'P 1'
_cell_length_a   4.91070100
_cell_length_b   7.60109200
_cell_length_c   17.09333600
_cell_angle_alpha   90.00000000
_cell_angle_beta   90.00000000
_cell_angle_gamma   90.00000000
_symmetry_Int_Tables_number   1
_chemical_formula_structural   Mn
_chemical_formula_sum   Mn8
_cell_volume   638.03765540
_cell_formula_units_Z   8
loop_
 _symmetry_equiv_pos_site_id
 _symmetry_equiv_pos_as_xyz
  1  'x, y, z'
loop_
 _atom_site_type_symbol
 _atom_site_label
 _atom_site_symmetry_multiplicity
 _atom_site_fract_x
 _atom_site_fract_y
 _atom_site_fract_z
 _atom_site_occupancy
  Mn  Mn0  1  0.28922400  0.34122000  0.55208700  1.0
  Mn  Mn1  1  0.28922400  0.84122000  0.94791300  1.0
  Mn  Mn2  1  0.35830700  0.04056800  0.75276100  1.0
  Mn  Mn3  1  0.35830700  0.54056800  0.74723900  1.0
  Mn  Mn4  1  0.78922400  0.15878000  0.05208700  1.0
  Mn  Mn5  1  0.78922400  0.65878000  0.44791300  1.0
  Mn  Mn6  1  0.85830700  0.95943200  0.24723900  1.0
  Mn  Mn7  1  0.85830700  0.45943200  0.25276100  1.0
