# generated using pymatgen
data_Mn
_symmetry_space_group_name_H-M   'P 1'
_cell_length_a   5.12571400
_cell_length_b   5.22496051
_cell_length_c   8.16300623
_cell_angle_alpha   87.23858759
_cell_angle_beta   84.36333102
_cell_angle_gamma   60.62637502
_symmetry_Int_Tables_number   1
_chemical_formula_structural   Mn
_chemical_formula_sum   Mn2
_cell_volume   189.59192323
_cell_formula_units_Z   2
loop_
 _symmetry_equiv_pos_site_id
 _symmetry_equiv_pos_as_xyz
  1  'x, y, z'
loop_
 _atom_site_type_symbol
 _atom_site_label
 _atom_site_symmetry_multiplicity
 _atom_site_fract_x
 _atom_site_fract_y
 _atom_site_fract_z
 _atom_site_occupancy
  Mn  Mn0  1  0.74203400  0.61156200  0.28926800  1.0
  Mn  Mn1  1  0.35359600  0.38843800  0.78926800  1.0
