# generated using pymatgen
data_Mn
_symmetry_space_group_name_H-M   'P 1'
_cell_length_a   5.10092700
_cell_length_b   8.44050900
_cell_length_c   18.69593800
_cell_angle_alpha   90.00000000
_cell_angle_beta   90.00000000
_cell_angle_gamma   90.00000000
_symmetry_Int_Tables_number   1
_chemical_formula_structural   Mn
_chemical_formula_sum   Mn8
_cell_volume   804.94277165
_cell_formula_units_Z   8
loop_
 _symmetry_equiv_pos_site_id
 _symmetry_equiv_pos_as_xyz
  1  'x, y, z'
loop_
 _atom_site_type_symbol
 _atom_site_label
 _atom_site_symmetry_multiplicity
 _atom_site_fract_x
 _atom_site_fract_y
 _atom_site_fract_z
 _atom_site_occupancy
  Mn  Mn0  1  0.96423000  0.01238700  0.93199500  1.0
  Mn  Mn1  1  0.46301600  0.14550300  0.33963100  1.0
  Mn  Mn2  1  0.96301600  0.35449700  0.83963100  1.0
  Mn  Mn3  1  0.46423000  0.48761300  0.43199500  1.0
  Mn  Mn4  1  0.96423000  0.51238700  0.56800500  1.0
  Mn  Mn5  1  0.46301600  0.64550300  0.16036900  1.0
  Mn  Mn6  1  0.96301600  0.85449700  0.66036900  1.0
  Mn  Mn7  1  0.46423000  0.98761300  0.06800500  1.0
