# generated using pymatgen
data_Mn
_symmetry_space_group_name_H-M   'P 1'
_cell_length_a   5.10743600
_cell_length_b   6.08161640
_cell_length_c   11.53089576
_cell_angle_alpha   90.04130526
_cell_angle_beta   89.99512489
_cell_angle_gamma   89.99877151
_symmetry_Int_Tables_number   1
_chemical_formula_structural   Mn
_chemical_formula_sum   Mn4
_cell_volume   358.16643837
_cell_formula_units_Z   4
loop_
 _symmetry_equiv_pos_site_id
 _symmetry_equiv_pos_as_xyz
  1  'x, y, z'
loop_
 _atom_site_type_symbol
 _atom_site_label
 _atom_site_symmetry_multiplicity
 _atom_site_fract_x
 _atom_site_fract_y
 _atom_site_fract_z
 _atom_site_occupancy
  Mn  Mn0  1  0.01030100  0.03120000  0.66904400  1.0
  Mn  Mn1  1  0.51090600  0.96819400  0.33108000  1.0
  Mn  Mn2  1  0.51087700  0.53092400  0.83100400  1.0
  Mn  Mn3  1  0.01107700  0.46945800  0.16899600  1.0
