# generated using pymatgen
data_Mn
_symmetry_space_group_name_H-M   'P 1'
_cell_length_a   5.08896890
_cell_length_b   5.08898359
_cell_length_c   6.40736600
_cell_angle_alpha   90.00014514
_cell_angle_beta   90.00012398
_cell_angle_gamma   67.26179984
_symmetry_Int_Tables_number   1
_chemical_formula_structural   Mn
_chemical_formula_sum   Mn2
_cell_volume   153.03946885
_cell_formula_units_Z   2
loop_
 _symmetry_equiv_pos_site_id
 _symmetry_equiv_pos_as_xyz
  1  'x, y, z'
loop_
 _atom_site_type_symbol
 _atom_site_label
 _atom_site_symmetry_multiplicity
 _atom_site_fract_x
 _atom_site_fract_y
 _atom_site_fract_z
 _atom_site_occupancy
  Mn  Mn0  1  0.81826350  0.81830750  0.75000450  1.0
  Mn  Mn1  1  0.18174000  0.18171200  0.24999550  1.0
