# generated using pymatgen
data_Mn
_symmetry_space_group_name_H-M   'P 1'
_cell_length_a   10.09348200
_cell_length_b   10.23785899
_cell_length_c   16.77392969
_cell_angle_alpha   97.90336219
_cell_angle_beta   90.00000000
_cell_angle_gamma   119.53458709
_symmetry_Int_Tables_number   1
_chemical_formula_structural   Mn
_chemical_formula_sum   Mn16
_cell_volume   1489.15854703
_cell_formula_units_Z   16
loop_
 _symmetry_equiv_pos_site_id
 _symmetry_equiv_pos_as_xyz
  1  'x, y, z'
loop_
 _atom_site_type_symbol
 _atom_site_label
 _atom_site_symmetry_multiplicity
 _atom_site_fract_x
 _atom_site_fract_y
 _atom_site_fract_z
 _atom_site_occupancy
  Mn  Mn0  1  0.11453900  0.84698900  0.12822300  1.0
  Mn  Mn1  1  0.55583900  0.78635600  0.12776900  1.0
  Mn  Mn2  1  0.73245000  0.84698900  0.62822300  1.0
  Mn  Mn3  1  0.23051700  0.78635600  0.62776900  1.0
  Mn  Mn4  1  0.99607200  0.66984700  0.37874900  1.0
  Mn  Mn5  1  0.48914600  0.60880900  0.37839900  1.0
  Mn  Mn6  1  0.67377500  0.66984700  0.87874900  1.0
  Mn  Mn7  1  0.11966300  0.60880900  0.87839900  1.0
  Mn  Mn8  1  0.61676900  0.34618600  0.12751500  1.0
  Mn  Mn9  1  0.05548900  0.28758000  0.12955900  1.0
  Mn  Mn10  1  0.72941700  0.34618600  0.62751500  1.0
  Mn  Mn11  1  0.23209100  0.28758000  0.62955900  1.0
  Mn  Mn12  1  0.99113600  0.16472200  0.37970400  1.0
  Mn  Mn13  1  0.49534700  0.11419300  0.37898700  1.0
  Mn  Mn14  1  0.17358600  0.16472200  0.87970400  1.0
  Mn  Mn15  1  0.61884600  0.11419300  0.87898700  1.0
