# generated using pymatgen
data_Mn
_symmetry_space_group_name_H-M   'P 1'
_cell_length_a   5.98121100
_cell_length_b   10.09728327
_cell_length_c   10.29224600
_cell_angle_alpha   90.00000000
_cell_angle_beta   90.00000000
_cell_angle_gamma   93.55540520
_symmetry_Int_Tables_number   1
_chemical_formula_structural   Mn
_chemical_formula_sum   Mn8
_cell_volume   620.39334204
_cell_formula_units_Z   8
loop_
 _symmetry_equiv_pos_site_id
 _symmetry_equiv_pos_as_xyz
  1  'x, y, z'
loop_
 _atom_site_type_symbol
 _atom_site_label
 _atom_site_symmetry_multiplicity
 _atom_site_fract_x
 _atom_site_fract_y
 _atom_site_fract_z
 _atom_site_occupancy
  Mn  Mn0  1  0.12141700  0.86796900  0.83082400  1.0
  Mn  Mn1  1  0.12141700  0.36796900  0.66917600  1.0
  Mn  Mn2  1  0.37358800  0.64145400  0.35468700  1.0
  Mn  Mn3  1  0.37358800  0.14145400  0.14531300  1.0
  Mn  Mn4  1  0.62641200  0.85854600  0.85468700  1.0
  Mn  Mn5  1  0.62641200  0.35854600  0.64531300  1.0
  Mn  Mn6  1  0.87858300  0.63203100  0.33082400  1.0
  Mn  Mn7  1  0.87858300  0.13203100  0.16917600  1.0
