# generated using pymatgen
data_Mn
_symmetry_space_group_name_H-M   'P 1'
_cell_length_a   4.81528600
_cell_length_b   7.43178100
_cell_length_c   18.23539427
_cell_angle_alpha   90.89892177
_cell_angle_beta   90.00000000
_cell_angle_gamma   90.00000000
_symmetry_Int_Tables_number   1
_chemical_formula_structural   Mn
_chemical_formula_sum   Mn8
_cell_volume   652.49425924
_cell_formula_units_Z   8
loop_
 _symmetry_equiv_pos_site_id
 _symmetry_equiv_pos_as_xyz
  1  'x, y, z'
loop_
 _atom_site_type_symbol
 _atom_site_label
 _atom_site_symmetry_multiplicity
 _atom_site_fract_x
 _atom_site_fract_y
 _atom_site_fract_z
 _atom_site_occupancy
  Mn  Mn0  1  0.24246000  0.97072600  0.59908900  1.0
  Mn  Mn1  1  0.25754000  0.97072600  0.09908900  1.0
  Mn  Mn2  1  0.67279900  0.52024200  0.83244500  1.0
  Mn  Mn3  1  0.82720100  0.52024200  0.33244500  1.0
  Mn  Mn4  1  0.17279900  0.47975800  0.66755500  1.0
  Mn  Mn5  1  0.32720100  0.47975800  0.16755500  1.0
  Mn  Mn6  1  0.74246000  0.02927400  0.90091100  1.0
  Mn  Mn7  1  0.75754000  0.02927400  0.40091100  1.0
