# generated using pymatgen
data_Mn
_symmetry_space_group_name_H-M   'P 1'
_cell_length_a   4.99600678
_cell_length_b   5.53385681
_cell_length_c   6.68031257
_cell_angle_alpha   103.17180718
_cell_angle_beta   90.06270175
_cell_angle_gamma   116.74780532
_symmetry_Int_Tables_number   1
_chemical_formula_structural   Mn
_chemical_formula_sum   Mn2
_cell_volume   159.44490599
_cell_formula_units_Z   2
loop_
 _symmetry_equiv_pos_site_id
 _symmetry_equiv_pos_as_xyz
  1  'x, y, z'
loop_
 _atom_site_type_symbol
 _atom_site_label
 _atom_site_symmetry_multiplicity
 _atom_site_fract_x
 _atom_site_fract_y
 _atom_site_fract_z
 _atom_site_occupancy
  Mn  Mn0  1  0.64344450  0.29093100  0.72746450  1.0
  Mn  Mn1  1  0.35008250  0.70589500  0.27570650  1.0
