# generated using pymatgen
data_Mn
_symmetry_space_group_name_H-M   'P 1'
_cell_length_a   5.23979821
_cell_length_b   7.98116210
_cell_length_c   9.02257031
_cell_angle_alpha   87.22794795
_cell_angle_beta   87.25374364
_cell_angle_gamma   77.25880538
_symmetry_Int_Tables_number   1
_chemical_formula_structural   Mn
_chemical_formula_sum   Mn4
_cell_volume   367.33052408
_cell_formula_units_Z   4
loop_
 _symmetry_equiv_pos_site_id
 _symmetry_equiv_pos_as_xyz
  1  'x, y, z'
loop_
 _atom_site_type_symbol
 _atom_site_label
 _atom_site_symmetry_multiplicity
 _atom_site_fract_x
 _atom_site_fract_y
 _atom_site_fract_z
 _atom_site_occupancy
  Mn  Mn0  1  0.68950900  0.31932900  0.56172400  1.0
  Mn  Mn1  1  0.31037200  0.68101500  0.43818800  1.0
  Mn  Mn2  1  0.76053500  0.81450600  0.91045200  1.0
  Mn  Mn3  1  0.23920000  0.18537800  0.08945400  1.0
