# generated using pymatgen
data_Mn
_symmetry_space_group_name_H-M   'P 1'
_cell_length_a   5.06847385
_cell_length_b   5.07052925
_cell_length_c   8.52626744
_cell_angle_alpha   90.10030133
_cell_angle_beta   107.20251928
_cell_angle_gamma   119.96135707
_symmetry_Int_Tables_number   1
_chemical_formula_structural   Mn
_chemical_formula_sum   Mn2
_cell_volume   178.36667542
_cell_formula_units_Z   2
loop_
 _symmetry_equiv_pos_site_id
 _symmetry_equiv_pos_as_xyz
  1  'x, y, z'
loop_
 _atom_site_type_symbol
 _atom_site_label
 _atom_site_symmetry_multiplicity
 _atom_site_fract_x
 _atom_site_fract_y
 _atom_site_fract_z
 _atom_site_occupancy
  Mn  Mn0  1  0.97381000  0.98727000  0.96063800  1.0
  Mn  Mn1  1  0.87543350  0.43747200  0.31293250  1.0
