# generated using pymatgen
data_Mn
_symmetry_space_group_name_H-M   'P 1'
_cell_length_a   5.17818400
_cell_length_b   8.89123800
_cell_length_c   15.65060474
_cell_angle_alpha   93.32522630
_cell_angle_beta   90.00000000
_cell_angle_gamma   90.00000000
_symmetry_Int_Tables_number   1
_chemical_formula_structural   Mn
_chemical_formula_sum   Mn8
_cell_volume   719.34798649
_cell_formula_units_Z   8
loop_
 _symmetry_equiv_pos_site_id
 _symmetry_equiv_pos_as_xyz
  1  'x, y, z'
loop_
 _atom_site_type_symbol
 _atom_site_label
 _atom_site_symmetry_multiplicity
 _atom_site_fract_x
 _atom_site_fract_y
 _atom_site_fract_z
 _atom_site_occupancy
  Mn  Mn0  1  0.26693100  0.57837400  0.92053900  1.0
  Mn  Mn1  1  0.73961600  0.08938700  0.85015500  1.0
  Mn  Mn2  1  0.23961600  0.91061300  0.64984500  1.0
  Mn  Mn3  1  0.76693100  0.42162600  0.57946100  1.0
  Mn  Mn4  1  0.23306900  0.57837400  0.42053900  1.0
  Mn  Mn5  1  0.76038400  0.08938700  0.35015500  1.0
  Mn  Mn6  1  0.26038400  0.91061300  0.14984500  1.0
  Mn  Mn7  1  0.73306900  0.42162600  0.07946100  1.0
