# generated using pymatgen
data_Mn
_symmetry_space_group_name_H-M   'P 1'
_cell_length_a   5.10752100
_cell_length_b   8.22952000
_cell_length_c   9.47883319
_cell_angle_alpha   90.00000000
_cell_angle_beta   91.18674309
_cell_angle_gamma   90.00000000
_symmetry_Int_Tables_number   1
_chemical_formula_structural   Mn
_chemical_formula_sum   Mn4
_cell_volume   398.33308630
_cell_formula_units_Z   4
loop_
 _symmetry_equiv_pos_site_id
 _symmetry_equiv_pos_as_xyz
  1  'x, y, z'
loop_
 _atom_site_type_symbol
 _atom_site_label
 _atom_site_symmetry_multiplicity
 _atom_site_fract_x
 _atom_site_fract_y
 _atom_site_fract_z
 _atom_site_occupancy
  Mn  Mn0  1  0.25899400  0.67277800  0.59120400  1.0
  Mn  Mn1  1  0.24100600  0.17277800  0.90879600  1.0
  Mn  Mn2  1  0.75899400  0.82722200  0.09120400  1.0
  Mn  Mn3  1  0.74100600  0.32722200  0.40879600  1.0
