# generated using pymatgen
data_Cu
_symmetry_space_group_name_H-M   'P 1'
_cell_length_a   6.48212500
_cell_length_b   6.57429782
_cell_length_c   6.71186583
_cell_angle_alpha   66.33190321
_cell_angle_beta   87.35154122
_cell_angle_gamma   82.55173729
_symmetry_Int_Tables_number   1
_chemical_formula_structural   Cu
_chemical_formula_sum   Cu2
_cell_volume   259.75424302
_cell_formula_units_Z   2
loop_
 _symmetry_equiv_pos_site_id
 _symmetry_equiv_pos_as_xyz
  1  'x, y, z'
loop_
 _atom_site_type_symbol
 _atom_site_label
 _atom_site_symmetry_multiplicity
 _atom_site_fract_x
 _atom_site_fract_y
 _atom_site_fract_z
 _atom_site_occupancy
  Cu  Cu0  1  0.64795000  0.10054700  0.77519800  1.0
  Cu  Cu1  1  0.35205000  0.89945300  0.22480200  1.0
