# generated using pymatgen
data_Cu
_symmetry_space_group_name_H-M   'P 1'
_cell_length_a   6.08792800
_cell_length_b   6.51428089
_cell_length_c   7.46745832
_cell_angle_alpha   81.60366421
_cell_angle_beta   89.49590291
_cell_angle_gamma   68.49994271
_symmetry_Int_Tables_number   1
_chemical_formula_structural   Cu
_chemical_formula_sum   Cu2
_cell_volume   272.26595406
_cell_formula_units_Z   2
loop_
 _symmetry_equiv_pos_site_id
 _symmetry_equiv_pos_as_xyz
  1  'x, y, z'
loop_
 _atom_site_type_symbol
 _atom_site_label
 _atom_site_symmetry_multiplicity
 _atom_site_fract_x
 _atom_site_fract_y
 _atom_site_fract_z
 _atom_site_occupancy
  Cu  Cu0  1  0.26626800  0.12275300  0.17103800  1.0
  Cu  Cu1  1  0.73373200  0.87724700  0.82896200  1.0
