# generated using pymatgen
data_Cu
_symmetry_space_group_name_H-M   'P 1'
_cell_length_a   5.30171400
_cell_length_b   8.13703200
_cell_length_c   12.49945512
_cell_angle_alpha   90.00000000
_cell_angle_beta   91.83202347
_cell_angle_gamma   90.00000000
_symmetry_Int_Tables_number   1
_chemical_formula_structural   Cu
_chemical_formula_sum   Cu4
_cell_volume   538.95357181
_cell_formula_units_Z   4
loop_
 _symmetry_equiv_pos_site_id
 _symmetry_equiv_pos_as_xyz
  1  'x, y, z'
loop_
 _atom_site_type_symbol
 _atom_site_label
 _atom_site_symmetry_multiplicity
 _atom_site_fract_x
 _atom_site_fract_y
 _atom_site_fract_z
 _atom_site_occupancy
  Cu  Cu0  1  0.29260100  0.64054800  0.61020400  1.0
  Cu  Cu1  1  0.20739900  0.14054800  0.88979600  1.0
  Cu  Cu2  1  0.70739900  0.35945200  0.38979600  1.0
  Cu  Cu3  1  0.79260100  0.85945200  0.11020400  1.0
