# generated using pymatgen
data_Fe
_symmetry_space_group_name_H-M   'P 1'
_cell_length_a   10.40633048
_cell_length_b   10.70864216
_cell_length_c   10.45599025
_cell_angle_alpha   87.98403489
_cell_angle_beta   91.19110070
_cell_angle_gamma   89.51251696
_symmetry_Int_Tables_number   1
_chemical_formula_structural   Fe
_chemical_formula_sum   Fe100
_cell_volume   1164.16861555
_cell_formula_units_Z   100
loop_
 _symmetry_equiv_pos_site_id
 _symmetry_equiv_pos_as_xyz
  1  'x, y, z'
loop_
 _atom_site_type_symbol
 _atom_site_label
 _atom_site_symmetry_multiplicity
 _atom_site_fract_x
 _atom_site_fract_y
 _atom_site_fract_z
 _atom_site_occupancy
  Fe  Fe0  1  0.56778127  0.46128621  0.60394977  1
  Fe  Fe1  1  0.82153601  0.24746745  0.37245162  1
  Fe  Fe2  1  0.85259786  0.82222681  0.73812013  1
  Fe  Fe3  1  0.16926847  0.65513552  0.96052132  1
  Fe  Fe4  1  0.78493033  0.19260364  0.58304227  1
  Fe  Fe5  1  0.70178012  0.76745159  0.12192126  1
  Fe  Fe6  1  0.38933580  0.44786315  0.73752833  1
  Fe  Fe7  1  0.00584260  0.48084011  0.77683774  1
  Fe  Fe8  1  0.97047448  0.35032179  0.54487759  1
  Fe  Fe9  1  0.03503749  0.28587103  0.96187171  1
  Fe  Fe10  1  0.21326265  0.42229950  0.89679189  1
  Fe  Fe11  1  0.14644103  0.10020345  0.08512037  1
  Fe  Fe12  1  0.90545913  0.24866143  0.76706350  1
  Fe  Fe13  1  0.03331002  0.07199742  0.87340971  1
  Fe  Fe14  1  0.12789245  0.61885005  0.23925805  1
  Fe  Fe15  1  0.41099281  0.54259885  0.94683955  1
  Fe  Fe16  1  0.41649282  0.17178063  0.48371331  1
  Fe  Fe17  1  0.08844815  0.83229435  0.82797661  1
  Fe  Fe18  1  0.80561505  0.17394592  0.95957557  1
  Fe  Fe19  1  0.56757959  0.99030000  0.21791707  1
  Fe  Fe20  1  0.59635340  0.66005484  0.50577714  1
  Fe  Fe21  1  0.38912746  0.97665315  0.61712088  1
  Fe  Fe22  1  0.27685752  0.50018958  0.12058270  1
  Fe  Fe23  1  0.50098240  0.21005065  0.27742118  1
  Fe  Fe24  1  0.18619084  0.00516092  0.47548342  1
  Fe  Fe25  1  0.64508593  0.03383418  0.87341768  1
  Fe  Fe26  1  0.38754891  0.78546551  0.48381970  1
  Fe  Fe27  1  0.60350712  0.28685953  0.47777401  1
  Fe  Fe28  1  0.82295864  0.04289083  0.76104906  1
  Fe  Fe29  1  0.90751227  0.90223961  0.20019769  1
  Fe  Fe30  1  0.93477989  0.11436697  0.14877836  1
  Fe  Fe31  1  0.33292957  0.35760785  0.29661139  1
  Fe  Fe32  1  0.04286767  0.20933548  0.35202305  1
  Fe  Fe33  1  0.44655343  0.31406129  0.90841697  1
  Fe  Fe34  1  0.24748976  0.81510968  0.31096155  1
  Fe  Fe35  1  0.73744253  0.86760498  0.33352068  1
  Fe  Fe36  1  0.37237979  0.38702383  0.50627030  1
  Fe  Fe37  1  0.87458492  0.32312124  0.12556875  1
  Fe  Fe38  1  0.68777908  0.38985267  0.24925706  1
  Fe  Fe39  1  0.96594342  0.57416113  0.46906114  1
  Fe  Fe40  1  0.02564109  0.81273487  0.39788835  1
  Fe  Fe41  1  0.24549411  0.95015661  0.95767416  1
  Fe  Fe42  1  0.42054647  0.98825802  0.38512158  1
  Fe  Fe43  1  0.57248298  0.87262949  0.72820602  1
  Fe  Fe44  1  0.00620276  0.12457691  0.59551245  1
  Fe  Fe45  1  0.53921596  0.59642989  0.14752768  1
  Fe  Fe46  1  0.91126216  0.66794694  0.92172269  1
  Fe  Fe47  1  0.91387251  0.90435811  0.96648783  1
  Fe  Fe48  1  0.35003625  0.60314403  0.32263297  1
  Fe  Fe49  1  0.60179153  0.45594576  0.82037080  1
  Fe  Fe50  1  0.32244580  0.24504043  0.10124135  1
  Fe  Fe51  1  0.26086487  0.14740578  0.30357288  1
  Fe  Fe52  1  0.64341652  0.24323063  0.78567910  1
  Fe  Fe53  1  0.83379857  0.42603566  0.90492991  1
  Fe  Fe54  1  0.65868325  0.34763509  0.02026255  1
  Fe  Fe55  1  0.24486147  0.63019343  0.74979556  1
  Fe  Fe56  1  0.92932482  0.44952260  0.29331770  1
  Fe  Fe57  1  0.14879389  0.43628785  0.38634370  1
  Fe  Fe58  1  0.10057025  0.98860190  0.27044454  1
  Fe  Fe59  1  0.77286215  0.39388574  0.68142814  1
  Fe  Fe60  1  0.67665554  0.60417322  0.93863195  1
  Fe  Fe61  1  0.50808428  0.78465791  0.28020851  1
  Fe  Fe62  1  0.71212739  0.81914923  0.90055609  1
  Fe  Fe63  1  0.71232101  0.17201543  0.18951452  1
  Fe  Fe64  1  0.33347565  0.73546048  0.10644538  1
  Fe  Fe65  1  0.02223021  0.50625942  0.05357186  1
  Fe  Fe66  1  0.72035901  0.62120023  0.31206966  1
  Fe  Fe67  1  0.37592274  0.59034600  0.56514800  1
  Fe  Fe68  1  0.52691665  0.47891299  0.36483779  1
  Fe  Fe69  1  0.58667936  0.88181487  0.50307474  1
  Fe  Fe70  1  0.65754464  0.08089692  0.40402294  1
  Fe  Fe71  1  0.01708422  0.68201973  0.66110604  1
  Fe  Fe72  1  0.81111737  0.73999009  0.51596228  1
  Fe  Fe73  1  0.34759055  0.82282546  0.81525805  1
  Fe  Fe74  1  0.58162877  0.08916994  0.63288669  1
  Fe  Fe75  1  0.21343118  0.81814242  0.61967038  1
  Fe  Fe76  1  0.73213445  0.98437142  0.07659573  1
  Fe  Fe77  1  0.50743019  0.72922030  0.95926866  1
  Fe  Fe78  1  0.76220886  0.61418757  0.70724965  1
  Fe  Fe79  1  0.12402518  0.26848400  0.73530001  1
  Fe  Fe80  1  0.33028451  0.97178378  0.17271696  1
  Fe  Fe81  1  0.19971812  0.23548375  0.52004602  1
  Fe  Fe82  1  0.90285938  0.02845180  0.39253444  1
  Fe  Fe83  1  0.48033033  0.39461485  0.13076302  1
  Fe  Fe84  1  0.19972436  0.03224109  0.72347713  1
  Fe  Fe85  1  0.48959858  0.92063572  0.01150495  1
  Fe  Fe86  1  0.77944768  0.96455464  0.56616545  1
  Fe  Fe87  1  0.91646079  0.68759775  0.21464448  1
  Fe  Fe88  1  0.53123431  0.14772329  0.03882403  1
  Fe  Fe89  1  0.17856277  0.65072697  0.47606249  1
  Fe  Fe90  1  0.10159356  0.82516894  0.10686636  1
  Fe  Fe91  1  0.36410948  0.23263663  0.69436792  1
  Fe  Fe92  1  0.75971236  0.46776776  0.46950853  1
  Fe  Fe93  1  0.25375275  0.18020486  0.90111261  1
  Fe  Fe94  1  0.43180575  0.05937829  0.83278393  1
  Fe  Fe95  1  0.17231101  0.46056789  0.61705909  1
  Fe  Fe96  1  0.12077271  0.33060623  0.17599449  1
  Fe  Fe97  1  0.78800245  0.53513065  0.10774231  1
  Fe  Fe98  1  0.50636801  0.65732361  0.74002450  1
  Fe  Fe99  1  0.00416374  0.90998130  0.60283431  1
