# generated using pymatgen
data_Ce2Rh
_symmetry_space_group_name_H-M   'P 1'
_cell_length_a   8.18404500
_cell_length_b   8.22375200
_cell_length_c   8.22375101
_cell_angle_alpha   120.00000400
_cell_angle_beta   90.00000000
_cell_angle_gamma   90.00000000
_symmetry_Int_Tables_number   1
_chemical_formula_structural   Ce2Rh
_chemical_formula_sum   'Ce8 Rh4'
_cell_volume   479.33438130
_cell_formula_units_Z   4
loop_
 _symmetry_equiv_pos_site_id
 _symmetry_equiv_pos_as_xyz
  1  'x, y, z'
loop_
 _atom_site_type_symbol
 _atom_site_label
 _atom_site_symmetry_multiplicity
 _atom_site_fract_x
 _atom_site_fract_y
 _atom_site_fract_z
 _atom_site_occupancy
  Ce  Ce0  1  0.75000000  0.00000000  0.00000000  1.0
  Ce  Ce1  1  0.25000000  0.00000000  0.00000000  1.0
  Ce  Ce2  1  0.75000000  0.49557200  0.99114400  1.0
  Ce  Ce3  1  0.75000000  0.49557200  0.50442800  1.0
  Ce  Ce4  1  0.75000000  0.00885600  0.50442800  1.0
  Ce  Ce5  1  0.25000000  0.50442800  0.00885600  1.0
  Ce  Ce6  1  0.25000000  0.50442800  0.49557200  1.0
  Ce  Ce7  1  0.25000000  0.99114400  0.49557200  1.0
  Rh  Rh8  1  0.52518300  0.66666667  0.33333333  1.0
  Rh  Rh9  1  0.47481700  0.33333333  0.66666667  1.0
  Rh  Rh10  1  0.02518300  0.33333333  0.66666667  1.0
  Rh  Rh11  1  0.97481700  0.66666667  0.33333333  1.0
