# generated using pymatgen
data_Mn
_symmetry_space_group_name_H-M   'P 1'
_cell_length_a   3.96667200
_cell_length_b   5.53612002
_cell_length_c   5.69911702
_cell_angle_alpha   89.99010164
_cell_angle_beta   90.00080843
_cell_angle_gamma   89.99998969
_symmetry_Int_Tables_number   1
_chemical_formula_structural   Mn
_chemical_formula_sum   Mn2
_cell_volume   125.15244985
_cell_formula_units_Z   2
loop_
 _symmetry_equiv_pos_site_id
 _symmetry_equiv_pos_as_xyz
  1  'x, y, z'
loop_
 _atom_site_type_symbol
 _atom_site_label
 _atom_site_symmetry_multiplicity
 _atom_site_fract_x
 _atom_site_fract_y
 _atom_site_fract_z
 _atom_site_occupancy
  Mn  Mn0  1  0.00000100  0.50519300  0.49864750  1.0
  Mn  Mn1  1  0.00000300  0.99478600  0.99875000  1.0
