# generated using pymatgen
data_Mn
_symmetry_space_group_name_H-M   'P 1'
_cell_length_a   5.54486496
_cell_length_b   5.65231817
_cell_length_c   7.98485282
_cell_angle_alpha   89.38115012
_cell_angle_beta   88.50230579
_cell_angle_gamma   89.95490991
_symmetry_Int_Tables_number   1
_chemical_formula_structural   Mn
_chemical_formula_sum   Mn4
_cell_volume   250.15587743
_cell_formula_units_Z   4
loop_
 _symmetry_equiv_pos_site_id
 _symmetry_equiv_pos_as_xyz
  1  'x, y, z'
loop_
 _atom_site_type_symbol
 _atom_site_label
 _atom_site_symmetry_multiplicity
 _atom_site_fract_x
 _atom_site_fract_y
 _atom_site_fract_z
 _atom_site_occupancy
  Mn  Mn0  1  0.49985100  0.49991300  0.99997500  1.0
  Mn  Mn1  1  0.49997600  0.50000400  0.49998900  1.0
  Mn  Mn2  1  0.99990900  0.99993900  0.49988100  1.0
  Mn  Mn3  1  0.99989300  0.99987400  0.00012000  1.0
