# generated using pymatgen
data_Mn
_symmetry_space_group_name_H-M   'P 1'
_cell_length_a   4.02144000
_cell_length_b   5.53618537
_cell_length_c   5.57395137
_cell_angle_alpha   89.51564448
_cell_angle_beta   89.99941176
_cell_angle_gamma   89.99996902
_symmetry_Int_Tables_number   1
_chemical_formula_structural   Mn
_chemical_formula_sum   Mn2
_cell_volume   124.09088280
_cell_formula_units_Z   2
loop_
 _symmetry_equiv_pos_site_id
 _symmetry_equiv_pos_as_xyz
  1  'x, y, z'
loop_
 _atom_site_type_symbol
 _atom_site_label
 _atom_site_symmetry_multiplicity
 _atom_site_fract_x
 _atom_site_fract_y
 _atom_site_fract_z
 _atom_site_occupancy
  Mn  Mn0  1  0.00000250  0.50000950  0.50000850  1.0
  Mn  Mn1  1  0.99999950  0.99999400  0.99998800  1.0
