# generated using pymatgen
data_Mn
_symmetry_space_group_name_H-M   'P 1'
_cell_length_a   5.58599615
_cell_length_b   5.87143000
_cell_length_c   7.77742005
_cell_angle_alpha   89.99984830
_cell_angle_beta   90.10098825
_cell_angle_gamma   89.99992001
_symmetry_Int_Tables_number   1
_chemical_formula_structural   Mn
_chemical_formula_sum   Mn4
_cell_volume   255.08175734
_cell_formula_units_Z   4
loop_
 _symmetry_equiv_pos_site_id
 _symmetry_equiv_pos_as_xyz
  1  'x, y, z'
loop_
 _atom_site_type_symbol
 _atom_site_label
 _atom_site_symmetry_multiplicity
 _atom_site_fract_x
 _atom_site_fract_y
 _atom_site_fract_z
 _atom_site_occupancy
  Mn  Mn0  1  0.49996500  0.99996300  0.99997100  1.0
  Mn  Mn1  1  0.50006700  0.00000700  0.50002400  1.0
  Mn  Mn2  1  0.99995800  0.49998000  0.50005500  1.0
  Mn  Mn3  1  0.00005100  0.49995600  0.99997800  1.0
