# generated using pymatgen
data_AlF3
_symmetry_space_group_name_H-M   'P 1'
_cell_length_a   10.20704749
_cell_length_b   10.74507652
_cell_length_c   11.06849818
_cell_angle_alpha   91.01316786
_cell_angle_beta   88.36912692
_cell_angle_gamma   88.78775746
_symmetry_Int_Tables_number   1
_chemical_formula_structural   AlF3
_chemical_formula_sum   'Al25 F75'
_cell_volume   1212.97675166
_cell_formula_units_Z   25
loop_
 _symmetry_equiv_pos_site_id
 _symmetry_equiv_pos_as_xyz
  1  'x, y, z'
loop_
 _atom_site_type_symbol
 _atom_site_label
 _atom_site_symmetry_multiplicity
 _atom_site_fract_x
 _atom_site_fract_y
 _atom_site_fract_z
 _atom_site_occupancy
  Al  Al0  1  0.68575751  0.91921345  0.12864883  1
  Al  Al1  1  0.25619606  0.25609456  0.96404100  1
  Al  Al2  1  0.92246538  0.59262384  0.93910907  1
  Al  Al3  1  0.60944516  0.07176873  0.42569999  1
  Al  Al4  1  0.04926458  0.41521140  0.40749741  1
  Al  Al5  1  0.13133940  0.25664470  0.73861267  1
  Al  Al6  1  0.70238331  0.23489328  0.08022365  1
  Al  Al7  1  0.31157123  0.61774496  0.32649180  1
  Al  Al8  1  0.02237131  0.62066341  0.65046228  1
  Al  Al9  1  0.12508336  0.91704346  0.27680048  1
  Al  Al10  1  0.90069840  0.91361841  0.69305029  1
  Al  Al11  1  0.55379538  0.19891827  0.78505159  1
  Al  Al12  1  0.00820093  0.90569155  0.99187916  1
  Al  Al13  1  0.34679781  0.70675094  0.63339843  1
  Al  Al14  1  0.63221768  0.60747704  0.36071369  1
  Al  Al15  1  0.20416620  0.98481922  0.57813015  1
  Al  Al16  1  0.83003682  0.23022634  0.60477677  1
  Al  Al17  1  0.97661994  0.19812227  0.15331681  1
  Al  Al18  1  0.59453068  0.71657724  0.96879651  1
  Al  Al19  1  0.58156769  0.46876706  0.64815270  1
  Al  Al20  1  0.41236492  0.09179343  0.20009784  1
  Al  Al21  1  0.91399169  0.71627901  0.43945010  1
  Al  Al22  1  0.38767902  0.32319153  0.41572295  1
  Al  Al23  1  0.54974234  0.88037323  0.70359605  1
  Al  Al24  1  0.35796392  0.57083371  0.00902369  1
  F  F25  1  0.03225954  0.07085487  0.25708181  1
  F  F26  1  0.14736292  0.35653925  0.87586686  1
  F  F27  1  0.53490557  0.02110107  0.79014940  1
  F  F28  1  0.50978812  0.96260675  0.13753816  1
  F  F29  1  0.75137330  0.72169485  0.37395293  1
  F  F30  1  0.61683452  0.20397068  0.93609192  1
  F  F31  1  0.35639457  0.03492048  0.59540346  1
  F  F32  1  0.09738310  0.86070269  0.13037094  1
  F  F33  1  0.75244359  0.14520257  0.47683713  1
  F  F34  1  0.89508828  0.06986394  0.63407806  1
  F  F35  1  0.52346291  0.18658714  0.63278696  1
  F  F36  1  0.53851927  0.23017633  0.40893746  1
  F  F37  1  0.37383861  0.83270500  0.74381948  1
  F  F38  1  0.27111415  0.99468327  0.22406713  1
  F  F39  1  0.85604063  0.87576613  0.10257890  1
  F  F40  1  0.99243174  0.06364815  0.04475922  1
  F  F41  1  0.42275934  0.73918241  0.01158736  1
  F  F42  1  0.06214461  0.48098691  0.56360325  1
  F  F43  1  0.32741235  0.62001637  0.48801812  1
  F  F44  1  0.61067501  0.56249902  0.50734272  1
  F  F45  1  0.94888709  0.75420754  0.72953058  1
  F  F46  1  0.06850279  0.70449539  0.51083063  1
  F  F47  1  0.59858958  0.96794431  0.54336875  1
  F  F48  1  0.68872638  0.48641925  0.28298470  1
  F  F49  1  0.21207556  0.33317728  0.44174894  1
  F  F50  1  0.94359719  0.29848106  0.48649926  1
  F  F51  1  0.02361346  0.32607816  0.27158197  1
  F  F52  1  0.64123881  0.75008341  0.14061378  1
  F  F53  1  0.57561875  0.75198457  0.81272894  1
  F  F54  1  0.96132684  0.28492538  0.71260726  1
  F  F55  1  0.72089837  0.36260389  0.58505652  1
  F  F56  1  0.38811400  0.22398020  0.85408958  1
  F  F57  1  0.12849197  0.25042552  0.08204601  1
  F  F58  1  0.15140263  0.90814709  0.91206657  1
  F  F59  1  0.07898683  0.92477101  0.66909833  1
  F  F60  1  0.33906313  0.22202052  0.29001257  1
  F  F61  1  0.13643405  0.13851161  0.61703199  1
  F  F62  1  0.98597589  0.81679092  0.32693518  1
  F  F63  1  0.32411935  0.59316727  0.16499910  1
  F  F64  1  0.22754589  0.60139844  0.92687405  1
  F  F65  1  0.69356535  0.97807821  0.29562354  1
  F  F66  1  0.90834672  0.94764171  0.85503190  1
  F  F67  1  0.81329644  0.20939043  0.22273878  1
  F  F68  1  0.87538102  0.25981175  0.02819827  1
  F  F69  1  0.23598735  0.77025694  0.30874380  1
  F  F70  1  0.75739516  0.63899101  0.94851628  1
  F  F71  1  0.45437763  0.39631440  0.54411092  1
  F  F72  1  0.69096129  0.55111319  0.72842676  1
  F  F73  1  0.46318976  0.02951476  0.35098245  1
  F  F74  1  0.73153858  0.19539309  0.73821558  1
  F  F75  1  0.54689941  0.36893373  0.77083535  1
  F  F76  1  0.40633347  0.45874559  0.32886207  1
  F  F77  1  0.48465962  0.67933003  0.32246554  1
  F  F78  1  0.72815967  0.88882923  0.71020916  1
  F  F79  1  0.55438918  0.18951826  0.17682547  1
  F  F80  1  0.52727269  0.55524321  0.96626530  1
  F  F81  1  0.16676405  0.52751973  0.33476259  1
  F  F82  1  0.93760277  0.55150539  0.37224909  1
  F  F83  1  0.16790711  0.14574342  0.85243766  1
  F  F84  1  0.72917584  0.06644659  0.07145295  1
  F  F85  1  0.65996191  0.38636656  0.08075790  1
  F  F86  1  0.87957859  0.85759233  0.53226066  1
  F  F87  1  0.51295016  0.76764686  0.58484151  1
  F  F88  1  0.86390348  0.62530198  0.57110027  1
  F  F89  1  0.33477608  0.39992711  0.01939390  1
  F  F90  1  0.26760185  0.82888775  0.54981661  1
  F  F91  1  0.24547236  0.34130677  0.66899320  1
  F  F92  1  0.97223916  0.54125469  0.79230559  1
  F  F93  1  0.65497168  0.87309867  0.97187554  1
  F  F94  1  0.98738361  0.73668782  0.96055632  1
  F  F95  1  0.34395480  0.14695887  0.06112364  1
  F  F96  1  0.96347084  0.49995149  0.04920058  1
  F  F97  1  0.43525718  0.57593405  0.69191952  1
  F  F98  1  0.18925858  0.65056756  0.69304469  1
  F  F99  1  0.14391322  0.97997107  0.42931375  1
