# generated using pymatgen
data_AlF3
_symmetry_space_group_name_H-M   'P 1'
_cell_length_a   10.55188990
_cell_length_b   10.58359618
_cell_length_c   11.26419103
_cell_angle_alpha   91.42010731
_cell_angle_beta   93.22500455
_cell_angle_gamma   94.84344805
_symmetry_Int_Tables_number   1
_chemical_formula_structural   AlF3
_chemical_formula_sum   'Al25 F75'
_cell_volume   1250.92176861
_cell_formula_units_Z   25
loop_
 _symmetry_equiv_pos_site_id
 _symmetry_equiv_pos_as_xyz
  1  'x, y, z'
loop_
 _atom_site_type_symbol
 _atom_site_label
 _atom_site_symmetry_multiplicity
 _atom_site_fract_x
 _atom_site_fract_y
 _atom_site_fract_z
 _atom_site_occupancy
  Al  Al0  1  0.55634715  0.91076251  0.97556497  1
  Al  Al1  1  0.47557048  0.20583424  0.02184498  1
  Al  Al2  1  0.93234399  0.97617128  0.03969492  1
  Al  Al3  1  0.71844697  0.68011227  0.33025039  1
  Al  Al4  1  0.82294341  0.35305051  0.74034363  1
  Al  Al5  1  0.15921633  0.23996389  0.07164355  1
  Al  Al6  1  0.50474556  0.28043963  0.63723314  1
  Al  Al7  1  0.45892902  0.50822222  0.88800121  1
  Al  Al8  1  0.08648258  0.55350262  0.66519197  1
  Al  Al9  1  0.02951496  0.86207944  0.30760194  1
  Al  Al10  1  0.91282379  0.06604825  0.60783637  1
  Al  Al11  1  0.66742113  0.87732727  0.71264086  1
  Al  Al12  1  0.82341267  0.29533474  0.04949250  1
  Al  Al13  1  0.48528855  0.74785484  0.50375979  1
  Al  Al14  1  0.74231249  0.64973739  0.01974148  1
  Al  Al15  1  0.27646128  0.55026427  0.14281824  1
  Al  Al16  1  0.53294847  0.15241532  0.33769313  1
  Al  Al17  1  0.11944649  0.40999581  0.39190811  1
  Al  Al18  1  0.06518347  0.70628909  0.94645409  1
  Al  Al19  1  0.17235099  0.26468771  0.66791566  1
  Al  Al20  1  0.85677754  0.28415957  0.36505622  1
  Al  Al21  1  0.31795143  0.78200526  0.76635109  1
  Al  Al22  1  0.45420701  0.45808724  0.38474623  1
  Al  Al23  1  0.90988897  0.79329711  0.56391091  1
  Al  Al24  1  0.30476407  0.86842839  0.27030704  1
  F  F25  1  0.03722241  0.81663036  0.45907185  1
  F  F26  1  0.05733659  0.58339218  0.83167114  1
  F  F27  1  0.58897692  0.74866048  0.77167763  1
  F  F28  1  0.36366804  0.61657709  0.81699700  1
  F  F29  1  0.64756629  0.25650300  0.02866812  1
  F  F30  1  0.62047411  0.54550978  0.93603458  1
  F  F31  1  0.32677588  0.24849130  0.62394284  1
  F  F32  1  0.08330668  0.11782037  0.61690129  1
  F  F33  1  0.69264512  0.13872551  0.32620977  1
  F  F34  1  0.88344950  0.16483345  0.48038842  1
  F  F35  1  0.71070364  0.63704121  0.17304789  1
  F  F36  1  0.43509562  0.01245010  0.32340022  1
  F  F37  1  0.65534982  0.95684020  0.85646927  1
  F  F38  1  0.18180856  0.96115175  0.33424263  1
  F  F39  1  0.61652259  0.75475546  0.99748008  1
  F  F40  1  0.80839586  0.46984608  0.04975636  1
  F  F41  1  0.48718062  0.17317061  0.17238234  1
  F  F42  1  0.13295575  0.54124099  0.50832949  1
  F  F43  1  0.39488433  0.73523707  0.62975981  1
  F  F44  1  0.61421529  0.53922101  0.34528955  1
  F  F45  1  0.83863030  0.11767927  0.06066834  1
  F  F46  1  0.97196295  0.97616051  0.21203486  1
  F  F47  1  0.96610616  0.65689458  0.62721684  1
  F  F48  1  0.30214981  0.18644403  0.00953816  1
  F  F49  1  0.28856281  0.38637318  0.40490292  1
  F  F50  1  0.74526796  0.35247974  0.43956620  1
  F  F51  1  0.50684810  0.31405662  0.33229067  1
  F  F52  1  0.89048990  0.66781698  0.95028466  1
  F  F53  1  0.85318901  0.93334754  0.49003602  1
  F  F54  1  0.96074691  0.42367567  0.66609206  1
  F  F55  1  0.47772838  0.42335937  0.75419823  1
  F  F56  1  0.59275093  0.95279630  0.11913608  1
  F  F57  1  0.95349153  0.44701303  0.38184118  1
  F  F58  1  0.39871919  0.47833583  0.22818212  1
  F  F59  1  0.07649383  0.08952498  0.03900416  1
  F  F60  1  0.48597126  0.06220934  0.95007334  1
  F  F61  1  0.21291379  0.23362112  0.21460933  1
  F  F62  1  0.78997776  0.78504899  0.67118009  1
  F  F63  1  0.15917352  0.50134958  0.25781378  1
  F  F64  1  0.30807796  0.92230604  0.13121343  1
  F  F65  1  0.60535742  0.78548490  0.35747545  1
  F  F66  1  0.91146468  0.96591730  0.88788914  1
  F  F67  1  0.51032501  0.17938867  0.75169189  1
  F  F68  1  0.22167059  0.40416211  0.05416682  1
  F  F69  1  0.14824754  0.62172303  0.05471007  1
  F  F70  1  0.04711330  0.84178012  0.03665238  1
  F  F71  1  0.49621482  0.40985137  0.53418825  1
  F  F72  1  0.68080062  0.30727199  0.65591029  1
  F  F73  1  0.51712290  0.17001273  0.50076801  1
  F  F74  1  0.81550020  0.67838569  0.46170788  1
  F  F75  1  0.78422002  0.49772055  0.78267003  1
  F  F76  1  0.81479391  0.30696947  0.20983181  1
  F  F77  1  0.39280518  0.56996233  0.02369438  1
  F  F78  1  0.76057124  0.01822572  0.67044749  1
  F  F79  1  0.45396301  0.35727627  0.96160930  1
  F  F80  1  0.41959458  0.83401697  0.90253319  1
  F  F81  1  0.34091798  0.70350311  0.20922053  1
  F  F82  1  0.36516398  0.82311473  0.41452288  1
  F  F83  1  0.89609624  0.20697306  0.70188036  1
  F  F84  1  0.13177053  0.75754925  0.25437546  1
  F  F85  1  0.82817249  0.29151316  0.88816957  1
  F  F86  1  0.98498802  0.92030026  0.66187996  1
  F  F87  1  0.56936752  0.89265341  0.57839138  1
  F  F88  1  0.87467829  0.77006674  0.28418124  1
  F  F89  1  0.00138689  0.30923344  0.06008528  1
  F  F90  1  0.30988680  0.93141062  0.71993301  1
  F  F91  1  0.15044738  0.24155533  0.81454892  1
  F  F92  1  0.19742286  0.43870939  0.70449187  1
  F  F93  1  0.60346596  0.65764952  0.54781585  1
  F  F94  1  0.18886469  0.78927770  0.87738179  1
  F  F95  1  0.02039655  0.25844411  0.32525068  1
  F  F96  1  0.81751384  0.84519887  0.06671401  1
  F  F97  1  0.40225648  0.60518603  0.42812117  1
  F  F98  1  0.11008608  0.31355920  0.52567235  1
  F  F99  1  0.18753389  0.69418126  0.68079117  1
