# generated using pymatgen
data_Er2Rh
_symmetry_space_group_name_H-M   'P 1'
_cell_length_a   3.92372000
_cell_length_b   8.15807000
_cell_length_c   8.15807012
_cell_angle_alpha   119.99999953
_cell_angle_beta   90.00000000
_cell_angle_gamma   90.00000000
_symmetry_Int_Tables_number   1
_chemical_formula_structural   Er2Rh
_chemical_formula_sum   'Er4 Rh2'
_cell_volume   226.15359898
_cell_formula_units_Z   2
loop_
 _symmetry_equiv_pos_site_id
 _symmetry_equiv_pos_as_xyz
  1  'x, y, z'
loop_
 _atom_site_type_symbol
 _atom_site_label
 _atom_site_symmetry_multiplicity
 _atom_site_fract_x
 _atom_site_fract_y
 _atom_site_fract_z
 _atom_site_occupancy
  Er  Er0  1  0.50000000  0.00000000  0.00000000  1.0
  Er  Er1  1  0.50000000  0.50000000  1.00000000  1.0
  Er  Er2  1  0.50000000  0.50000000  0.50000000  1.0
  Er  Er3  1  0.50000000  1.00000000  0.50000000  1.0
  Rh  Rh4  1  0.00000000  0.33333333  0.66666667  1.0
  Rh  Rh5  1  0.00000000  0.66666667  0.33333333  1.0
