# generated using pymatgen
data_Ni
_symmetry_space_group_name_H-M   'P 1'
_cell_length_a   6.18090800
_cell_length_b   6.18090857
_cell_length_c   11.35973600
_cell_angle_alpha   90.00000000
_cell_angle_beta   90.00000000
_cell_angle_gamma   119.99999697
_symmetry_Int_Tables_number   1
_chemical_formula_structural   Ni
_chemical_formula_sum   Ni6
_cell_volume   375.84041805
_cell_formula_units_Z   6
loop_
 _symmetry_equiv_pos_site_id
 _symmetry_equiv_pos_as_xyz
  1  'x, y, z'
loop_
 _atom_site_type_symbol
 _atom_site_label
 _atom_site_symmetry_multiplicity
 _atom_site_fract_x
 _atom_site_fract_y
 _atom_site_fract_z
 _atom_site_occupancy
  Ni  Ni0  1  0.33267400  0.33267400  0.49856900  1.0
  Ni  Ni1  1  0.33267400  0.00000000  0.99856900  1.0
  Ni  Ni2  1  1.00000000  0.33267400  0.99856900  1.0
  Ni  Ni3  1  1.00000000  0.66732600  0.49856900  1.0
  Ni  Ni4  1  0.66732600  0.00000000  0.49856900  1.0
  Ni  Ni5  1  0.66732600  0.66732600  0.99856900  1.0
