# generated using pymatgen
data_NdPd
_symmetry_space_group_name_H-M   'P 1'
_cell_length_a   4.13077800
_cell_length_b   7.68851000
_cell_length_c   7.68851089
_cell_angle_alpha   119.99999619
_cell_angle_beta   90.00000000
_cell_angle_gamma   90.00000000
_symmetry_Int_Tables_number   1
_chemical_formula_structural   NdPd
_chemical_formula_sum   'Nd3 Pd3'
_cell_volume   211.46910215
_cell_formula_units_Z   3
loop_
 _symmetry_equiv_pos_site_id
 _symmetry_equiv_pos_as_xyz
  1  'x, y, z'
loop_
 _atom_site_type_symbol
 _atom_site_label
 _atom_site_symmetry_multiplicity
 _atom_site_fract_x
 _atom_site_fract_y
 _atom_site_fract_z
 _atom_site_occupancy
  Nd  Nd0  1  0.00000000  0.00000000  0.58938900  1.0
  Nd  Nd1  1  1.00000000  0.58938900  1.00000000  1.0
  Nd  Nd2  1  1.00000000  0.41061100  0.41061100  1.0
  Pd  Pd3  1  0.50000000  0.33333333  0.66666667  1.0
  Pd  Pd4  1  0.00000000  0.00000000  0.00000000  1.0
  Pd  Pd5  1  0.50000000  0.66666667  0.33333333  1.0
