# generated using pymatgen
data_CoMo
_symmetry_space_group_name_H-M   'P 1'
_cell_length_a   5.64573484
_cell_length_b   5.65549502
_cell_length_c   5.66790405
_cell_angle_alpha   119.79768012
_cell_angle_beta   119.84537644
_cell_angle_gamma   90.05286370
_symmetry_Int_Tables_number   1
_chemical_formula_structural   CoMo
_chemical_formula_sum   'Co1 Mo1'
_cell_volume   128.59626440
_cell_formula_units_Z   1
loop_
 _symmetry_equiv_pos_site_id
 _symmetry_equiv_pos_as_xyz
  1  'x, y, z'
loop_
 _atom_site_type_symbol
 _atom_site_label
 _atom_site_symmetry_multiplicity
 _atom_site_fract_x
 _atom_site_fract_y
 _atom_site_fract_z
 _atom_site_occupancy
  Co  Co0  1  0.00000000  0.00000000  0.00000000  1.0
  Mo  Mo1  1  0.50000000  0.50000000  0.00000000  1.0
