# generated using pymatgen
data_Fe
_symmetry_space_group_name_H-M   'P 1'
_cell_length_a   4.12966194
_cell_length_b   4.13866566
_cell_length_c   9.15989866
_cell_angle_alpha   90.05959446
_cell_angle_beta   90.41190411
_cell_angle_gamma   89.97402905
_symmetry_Int_Tables_number   1
_chemical_formula_structural   Fe
_chemical_formula_sum   Fe2
_cell_volume   156.55033909
_cell_formula_units_Z   2
loop_
 _symmetry_equiv_pos_site_id
 _symmetry_equiv_pos_as_xyz
  1  'x, y, z'
loop_
 _atom_site_type_symbol
 _atom_site_label
 _atom_site_symmetry_multiplicity
 _atom_site_fract_x
 _atom_site_fract_y
 _atom_site_fract_z
 _atom_site_occupancy
  Fe  Fe0  1  0.74677400  0.25352000  0.50043050  1.0
  Fe  Fe1  1  0.25679300  0.75301050  0.49881400  1.0
