# generated using pymatgen
data_Fe
_symmetry_space_group_name_H-M   'P 1'
_cell_length_a   6.18249182
_cell_length_b   6.18249182
_cell_length_c   13.05038115
_cell_angle_alpha   76.29810783
_cell_angle_beta   76.29810783
_cell_angle_gamma   60.00000192
_symmetry_Int_Tables_number   1
_chemical_formula_structural   Fe
_chemical_formula_sum   Fe4
_cell_volume   415.52427435
_cell_formula_units_Z   4
loop_
 _symmetry_equiv_pos_site_id
 _symmetry_equiv_pos_as_xyz
  1  'x, y, z'
loop_
 _atom_site_type_symbol
 _atom_site_label
 _atom_site_symmetry_multiplicity
 _atom_site_fract_x
 _atom_site_fract_y
 _atom_site_fract_z
 _atom_site_occupancy
  Fe  Fe0  1  0.83765100  0.83765100  0.48704700  1.0
  Fe  Fe1  1  0.76634000  0.76634000  0.70098000  1.0
  Fe  Fe2  1  0.67131000  0.67131000  0.98607000  1.0
  Fe  Fe3  1  0.29324900  0.29324900  0.12025300  1.0
