# generated using pymatgen
data_MnFe2
_symmetry_space_group_name_H-M   'P 1'
_cell_length_a   6.10071695
_cell_length_b   6.11068668
_cell_length_c   25.10127665
_cell_angle_alpha   83.24649487
_cell_angle_beta   83.62329648
_cell_angle_gamma   60.48588054
_symmetry_Int_Tables_number   1
_chemical_formula_structural   MnFe2
_chemical_formula_sum   'Mn10 Fe20'
_cell_volume   807.15436933
_cell_formula_units_Z   10
loop_
 _symmetry_equiv_pos_site_id
 _symmetry_equiv_pos_as_xyz
  1  'x, y, z'
loop_
 _atom_site_type_symbol
 _atom_site_label
 _atom_site_symmetry_multiplicity
 _atom_site_fract_x
 _atom_site_fract_y
 _atom_site_fract_z
 _atom_site_occupancy
  Mn  Mn0  1  0.32848500  0.82479500  0.02481000  1.0
  Mn  Mn1  1  0.80106600  0.79859100  0.09951400  1.0
  Mn  Mn2  1  0.92888900  0.42270700  0.22431200  1.0
  Mn  Mn3  1  0.52703300  0.02081800  0.42541500  1.0
  Mn  Mn4  1  0.99991500  0.99819800  0.50056000  1.0
  Mn  Mn5  1  0.12644300  0.62506400  0.62715800  1.0
  Mn  Mn6  1  0.40307600  0.39804600  0.29968300  1.0
  Mn  Mn7  1  0.72514800  0.22725700  0.82525300  1.0
  Mn  Mn8  1  0.60123600  0.60130000  0.70017700  1.0
  Mn  Mn9  1  0.67465300  0.17358500  0.97380000  1.0
  Fe  Fe10  1  0.80178800  0.29901900  0.09934100  1.0
  Fe  Fe11  1  0.00187200  0.50110300  0.99943400  1.0
  Fe  Fe12  1  0.29862100  0.30037600  0.09937100  1.0
  Fe  Fe13  1  0.39999800  0.90447200  0.29920300  1.0
  Fe  Fe14  1  0.59849300  0.09951100  0.19932600  1.0
  Fe  Fe15  1  0.89588100  0.90346000  0.29878900  1.0
  Fe  Fe16  1  0.27796200  0.77238100  0.17502500  1.0
  Fe  Fe17  1  0.00166600  0.50005300  0.50052400  1.0
  Fe  Fe18  1  0.19786400  0.70023400  0.40120800  1.0
  Fe  Fe19  1  0.49680600  0.49959100  0.50069000  1.0
  Fe  Fe20  1  0.87042200  0.38116300  0.37478400  1.0
  Fe  Fe21  1  0.80367300  0.29934500  0.60043300  1.0
  Fe  Fe22  1  0.09882400  0.10238100  0.69999000  1.0
  Fe  Fe23  1  0.47426200  0.97376300  0.57548200  1.0
  Fe  Fe24  1  0.39767000  0.89951500  0.80010100  1.0
  Fe  Fe25  1  0.59957100  0.10204900  0.70033700  1.0
  Fe  Fe26  1  0.70049900  0.69920000  0.90013400  1.0
  Fe  Fe27  1  0.07375700  0.58038600  0.77595100  1.0
  Fe  Fe28  1  0.20046300  0.69950100  0.90044300  1.0
  Fe  Fe29  1  0.19931800  0.20118900  0.89993700  1.0
