# generated using pymatgen
data_Cr
_symmetry_space_group_name_H-M   'P 1'
_cell_length_a   9.75768402
_cell_length_b   9.88102427
_cell_length_c   9.98691529
_cell_angle_alpha   89.09186447
_cell_angle_beta   80.38328855
_cell_angle_gamma   86.21903866
_symmetry_Int_Tables_number   1
_chemical_formula_structural   Cr
_chemical_formula_sum   Cr32
_cell_volume   947.28850414
_cell_formula_units_Z   32
loop_
 _symmetry_equiv_pos_site_id
 _symmetry_equiv_pos_as_xyz
  1  'x, y, z'
loop_
 _atom_site_type_symbol
 _atom_site_label
 _atom_site_symmetry_multiplicity
 _atom_site_fract_x
 _atom_site_fract_y
 _atom_site_fract_z
 _atom_site_occupancy
  Cr  Cr0  1  0.60137539  0.69938284  0.10413961  1.0
  Cr  Cr1  1  0.45525450  0.47229365  0.31974637  1.0
  Cr  Cr2  1  0.86448680  0.30093773  0.86685138  1.0
  Cr  Cr3  1  0.34955912  0.95241487  0.68825497  1.0
  Cr  Cr4  1  0.13335146  0.42793945  0.60025704  1.0
  Cr  Cr5  1  0.20870362  0.99391258  0.20225848  1.0
  Cr  Cr6  1  0.71281705  0.78012935  0.71272761  1.0
  Cr  Cr7  1  0.65364004  0.46206331  0.71104971  1.0
  Cr  Cr8  1  0.41025887  0.58025026  0.67878951  1.0
  Cr  Cr9  1  0.99658374  0.79101849  0.40701322  1.0
  Cr  Cr10  1  0.80088955  0.45898939  0.13836014  1.0
  Cr  Cr11  1  0.13850961  0.33667426  0.03077236  1.0
  Cr  Cr12  1  0.44367062  0.89681235  0.31081377  1.0
  Cr  Cr13  1  0.27142695  0.73696625  0.48806427  1.0
  Cr  Cr14  1  0.81849041  0.98597504  0.88705723  1.0
  Cr  Cr15  1  0.72681452  0.26425086  0.41386408  1.0
  Cr  Cr16  1  0.72847647  0.95159142  0.39396480  1.0
  Cr  Cr17  1  0.95326670  0.77749520  0.10872370  1.0
  Cr  Cr18  1  0.50433593  0.92074512  0.93023386  1.0
  Cr  Cr19  1  0.92127100  0.59881479  0.88114543  1.0
  Cr  Cr20  1  0.08751377  0.77609760  0.74601939  1.0
  Cr  Cr21  1  0.47510221  0.43937421  0.01681504  1.0
  Cr  Cr22  1  0.13374280  0.06174295  0.91446646  1.0
  Cr  Cr23  1  0.04138363  0.29280593  0.32592082  1.0
  Cr  Cr24  1  0.91302487  0.05375770  0.14401929  1.0
  Cr  Cr25  1  0.65220302  0.63747016  0.44241823  1.0
  Cr  Cr26  1  0.19370411  0.59988783  0.24151439  1.0
  Cr  Cr27  1  0.62209773  0.11030437  0.70062633  1.0
  Cr  Cr28  1  0.00527219  0.14384388  0.60242959  1.0
  Cr  Cr29  1  0.35499387  0.26605768  0.78802444  1.0
  Cr  Cr30  1  0.59886576  0.18559387  0.12235615  1.0
  Cr  Cr31  1  0.37534093  0.19172381  0.44590202  1.0
