# generated using pymatgen
data_Cr
_symmetry_space_group_name_H-M   'P 1'
_cell_length_a   9.54231847
_cell_length_b   9.95748283
_cell_length_c   10.19560725
_cell_angle_alpha   86.96871771
_cell_angle_beta   86.46255058
_cell_angle_gamma   94.45571364
_symmetry_Int_Tables_number   1
_chemical_formula_structural   Cr
_chemical_formula_sum   Cr32
_cell_volume   962.37215002
_cell_formula_units_Z   32
loop_
 _symmetry_equiv_pos_site_id
 _symmetry_equiv_pos_as_xyz
  1  'x, y, z'
loop_
 _atom_site_type_symbol
 _atom_site_label
 _atom_site_symmetry_multiplicity
 _atom_site_fract_x
 _atom_site_fract_y
 _atom_site_fract_z
 _atom_site_occupancy
  Cr  Cr0  1  0.45251133  0.70013121  0.44653351  1.0
  Cr  Cr1  1  0.25857370  0.71453737  0.67426497  1.0
  Cr  Cr2  1  0.00578081  0.48681376  0.50422339  1.0
  Cr  Cr3  1  0.60231230  0.51042717  0.15135209  1.0
  Cr  Cr4  1  0.41463022  0.86012227  0.86453473  1.0
  Cr  Cr5  1  0.86506171  0.14724966  0.99924221  1.0
  Cr  Cr6  1  0.47889838  0.03408913  0.59441253  1.0
  Cr  Cr7  1  0.70228461  0.26433653  0.60655198  1.0
  Cr  Cr8  1  0.75648969  0.68442239  0.28449386  1.0
  Cr  Cr9  1  0.32080556  0.39524717  0.60306052  1.0
  Cr  Cr10  1  0.01742558  0.37505141  0.80954997  1.0
  Cr  Cr11  1  0.63186859  0.13726890  0.19369991  1.0
  Cr  Cr12  1  0.27438516  0.06312301  0.33759292  1.0
  Cr  Cr13  1  0.94577918  0.14236850  0.41143584  1.0
  Cr  Cr14  1  0.13365579  0.93199097  0.91903196  1.0
  Cr  Cr15  1  0.04148243  0.76840706  0.43325100  1.0
  Cr  Cr16  1  0.28711294  0.24988784  0.93288174  1.0
  Cr  Cr17  1  0.70558272  0.55726759  0.53582307  1.0
  Cr  Cr18  1  0.74545119  0.85117873  0.03328360  1.0
  Cr  Cr19  1  0.49356585  0.34932538  0.39566767  1.0
  Cr  Cr20  1  0.92854913  0.62873674  0.03734962  1.0
  Cr  Cr21  1  0.59622045  0.07111762  0.87498464  1.0
  Cr  Cr22  1  0.75553306  0.87413122  0.57335956  1.0
  Cr  Cr23  1  0.91841903  0.07643239  0.71780267  1.0
  Cr  Cr24  1  0.99965814  0.95872695  0.22229369  1.0
  Cr  Cr25  1  0.48881677  0.86155640  0.16724793  1.0
  Cr  Cr26  1  0.46150613  0.49652733  0.89273876  1.0
  Cr  Cr27  1  0.17522779  0.00147603  0.62890342  1.0
  Cr  Cr28  1  0.01654773  0.33037151  0.17479512  1.0
  Cr  Cr29  1  0.23057602  0.51772467  0.26475445  1.0
  Cr  Cr30  1  0.22945983  0.66656112  0.02138927  1.0
  Cr  Cr31  1  0.91792310  0.70629315  0.76544989  1.0
