# generated using pymatgen
data_Cr
_symmetry_space_group_name_H-M   'P 1'
_cell_length_a   9.10728002
_cell_length_b   9.98348754
_cell_length_c   10.51759681
_cell_angle_alpha   95.23208611
_cell_angle_beta   92.69889830
_cell_angle_gamma   92.35288619
_symmetry_Int_Tables_number   1
_chemical_formula_structural   Cr
_chemical_formula_sum   Cr32
_cell_volume   950.25563797
_cell_formula_units_Z   32
loop_
 _symmetry_equiv_pos_site_id
 _symmetry_equiv_pos_as_xyz
  1  'x, y, z'
loop_
 _atom_site_type_symbol
 _atom_site_label
 _atom_site_symmetry_multiplicity
 _atom_site_fract_x
 _atom_site_fract_y
 _atom_site_fract_z
 _atom_site_occupancy
  Cr  Cr0  1  0.64553639  0.71716390  0.46727528  1.0
  Cr  Cr1  1  0.78206285  0.26584442  0.62409429  1.0
  Cr  Cr2  1  0.93711701  0.15629247  0.34095417  1.0
  Cr  Cr3  1  0.47225415  0.86989462  0.62130111  1.0
  Cr  Cr4  1  0.11415244  0.30397884  0.61374950  1.0
  Cr  Cr5  1  0.15022821  0.93661237  0.25608691  1.0
  Cr  Cr6  1  0.84508699  0.93288644  0.49272844  1.0
  Cr  Cr7  1  0.29702904  0.88546023  0.93988613  1.0
  Cr  Cr8  1  0.83803924  0.82345079  0.76520708  1.0
  Cr  Cr9  1  0.88562830  0.68113117  0.25015086  1.0
  Cr  Cr10  1  0.17819038  0.58719776  0.14169567  1.0
  Cr  Cr11  1  0.32093530  0.23654265  0.96339801  1.0
  Cr  Cr12  1  0.56130145  0.08750197  0.39674708  1.0
  Cr  Cr13  1  0.90085121  0.39023182  0.16712211  1.0
  Cr  Cr14  1  0.81329668  0.89302026  0.05128686  1.0
  Cr  Cr15  1  0.82923549  0.20277637  0.86888891  1.0
  Cr  Cr16  1  0.53677301  0.85944422  0.21709883  1.0
  Cr  Cr17  1  0.06499925  0.13002560  0.07775202  1.0
  Cr  Cr18  1  0.58876168  0.24322852  0.16007756  1.0
  Cr  Cr19  1  0.92223479  0.56983749  0.52021455  1.0
  Cr  Cr20  1  0.12752949  0.75052839  0.68551478  1.0
  Cr  Cr21  1  0.53583941  0.71515953  0.89551345  1.0
  Cr  Cr22  1  0.08141871  0.04847781  0.74745405  1.0
  Cr  Cr23  1  0.46779041  0.45986548  0.53202395  1.0
  Cr  Cr24  1  0.71583772  0.40684066  0.35177072  1.0
  Cr  Cr25  1  0.58633458  0.04872251  0.88123201  1.0
  Cr  Cr26  1  0.00353167  0.44835807  0.90558691  1.0
  Cr  Cr27  1  0.59071912  0.34569991  0.81327169  1.0
  Cr  Cr28  1  0.30894773  0.49811526  0.83340073  1.0
  Cr  Cr29  1  0.25627069  0.70139126  0.41478822  1.0
  Cr  Cr30  1  0.29523938  0.30664127  0.30841856  1.0
  Cr  Cr31  1  0.26074203  0.02487506  0.49343495  1.0
