# generated using pymatgen
data_Cr
_symmetry_space_group_name_H-M   'P 1'
_cell_length_a   5.12819400
_cell_length_b   5.12801840
_cell_length_c   5.63426399
_cell_angle_alpha   62.92985830
_cell_angle_beta   62.93221097
_cell_angle_gamma   60.00063226
_symmetry_Int_Tables_number   1
_chemical_formula_structural   Cr
_chemical_formula_sum   Cr4
_cell_volume   109.17433756
_cell_formula_units_Z   4
loop_
 _symmetry_equiv_pos_site_id
 _symmetry_equiv_pos_as_xyz
  1  'x, y, z'
loop_
 _atom_site_type_symbol
 _atom_site_label
 _atom_site_symmetry_multiplicity
 _atom_site_fract_x
 _atom_site_fract_y
 _atom_site_fract_z
 _atom_site_occupancy
  Cr  Cr0  1  0.00070800  0.00070800  0.99787200  1.0
  Cr  Cr1  1  0.50047900  0.50046500  0.49858000  1.0
  Cr  Cr2  1  0.68524800  0.68525600  0.94425000  1.0
  Cr  Cr3  1  0.31347000  0.31346400  0.05960100  1.0
