# generated using pymatgen
data_Cr
_symmetry_space_group_name_H-M   'P 1'
_cell_length_a   9.06728673
_cell_length_b   9.93737914
_cell_length_c   10.48481459
_cell_angle_alpha   92.64275491
_cell_angle_beta   90.98175560
_cell_angle_gamma   92.01838544
_symmetry_Int_Tables_number   1
_chemical_formula_structural   Cr
_chemical_formula_sum   Cr32
_cell_volume   942.97811451
_cell_formula_units_Z   32
loop_
 _symmetry_equiv_pos_site_id
 _symmetry_equiv_pos_as_xyz
  1  'x, y, z'
loop_
 _atom_site_type_symbol
 _atom_site_label
 _atom_site_symmetry_multiplicity
 _atom_site_fract_x
 _atom_site_fract_y
 _atom_site_fract_z
 _atom_site_occupancy
  Cr  Cr0  1  0.53104433  0.45151739  0.48175256  1.0
  Cr  Cr1  1  0.88304818  0.47617329  0.35460837  1.0
  Cr  Cr2  1  0.90579631  0.27685135  0.08369296  1.0
  Cr  Cr3  1  0.02652438  0.72902933  0.55682713  1.0
  Cr  Cr4  1  0.67132637  0.49424994  0.90515442  1.0
  Cr  Cr5  1  0.12834962  0.13107729  0.83377383  1.0
  Cr  Cr6  1  0.04103066  0.59024935  0.12839272  1.0
  Cr  Cr7  1  0.27077605  0.05631982  0.59599838  1.0
  Cr  Cr8  1  0.26145529  0.64255077  0.35637201  1.0
  Cr  Cr9  1  0.33941692  0.32247615  0.94345946  1.0
  Cr  Cr10  1  0.40238304  0.10816136  0.37552515  1.0
  Cr  Cr11  1  0.58759145  0.81186641  0.93427476  1.0
  Cr  Cr12  1  0.17531933  0.37399105  0.62405945  1.0
  Cr  Cr13  1  0.65381994  0.17335712  0.93515297  1.0
  Cr  Cr14  1  0.10925633  0.06014014  0.10171905  1.0
  Cr  Cr15  1  0.80322131  0.11003311  0.26120262  1.0
  Cr  Cr16  1  0.24689130  0.33333333  0.27907671  1.0
  Cr  Cr17  1  0.49194481  0.93274868  0.15252684  1.0
  Cr  Cr18  1  0.00461026  0.15807571  0.47873059  1.0
  Cr  Cr19  1  0.38238214  0.59899770  0.07809191  1.0
  Cr  Cr20  1  0.08772298  0.69651303  0.86096966  1.0
  Cr  Cr21  1  0.13421523  0.90957464  0.32093606  1.0
  Cr  Cr22  1  0.88624367  0.85637592  0.03528930  1.0
  Cr  Cr23  1  0.57847932  0.23314318  0.67628436  1.0
  Cr  Cr24  1  0.57732046  0.38332068  0.20281224  1.0
  Cr  Cr25  1  0.66426976  0.67101106  0.23606679  1.0
  Cr  Cr26  1  0.30928751  0.92276939  0.91165773  1.0
  Cr  Cr27  1  0.65371017  0.95456447  0.46205912  1.0
  Cr  Cr28  1  0.70381790  0.69192356  0.67322884  1.0
  Cr  Cr29  1  0.37466722  0.63851011  0.67686618  1.0
  Cr  Cr30  1  0.85255195  0.96802513  0.73203436  1.0
  Cr  Cr31  1  0.87834497  0.44579470  0.63615577  1.0
