# generated using pymatgen
data_Cr
_symmetry_space_group_name_H-M   'P 1'
_cell_length_a   5.06981507
_cell_length_b   5.06975200
_cell_length_c   5.47238927
_cell_angle_alpha   62.40555721
_cell_angle_beta   62.40698465
_cell_angle_gamma   60.00046021
_symmetry_Int_Tables_number   1
_chemical_formula_structural   Cr
_chemical_formula_sum   Cr4
_cell_volume   102.92373283
_cell_formula_units_Z   4
loop_
 _symmetry_equiv_pos_site_id
 _symmetry_equiv_pos_as_xyz
  1  'x, y, z'
loop_
 _atom_site_type_symbol
 _atom_site_label
 _atom_site_symmetry_multiplicity
 _atom_site_fract_x
 _atom_site_fract_y
 _atom_site_fract_z
 _atom_site_occupancy
  Cr  Cr0  1  0.34813300  0.34810300  0.95561600  1.0
  Cr  Cr1  1  0.84815600  0.84812400  0.45562000  1.0
  Cr  Cr2  1  0.15186600  0.15188000  0.54438400  1.0
  Cr  Cr3  1  0.65185300  0.65189100  0.04438600  1.0
