# generated using pymatgen
data_Cr
_symmetry_space_group_name_H-M   'P 1'
_cell_length_a   9.59381470
_cell_length_b   10.11740215
_cell_length_c   9.71082219
_cell_angle_alpha   94.50274445
_cell_angle_beta   90.46965585
_cell_angle_gamma   88.74688389
_symmetry_Int_Tables_number   1
_chemical_formula_structural   Cr
_chemical_formula_sum   Cr32
_cell_volume   939.42214246
_cell_formula_units_Z   32
loop_
 _symmetry_equiv_pos_site_id
 _symmetry_equiv_pos_as_xyz
  1  'x, y, z'
loop_
 _atom_site_type_symbol
 _atom_site_label
 _atom_site_symmetry_multiplicity
 _atom_site_fract_x
 _atom_site_fract_y
 _atom_site_fract_z
 _atom_site_occupancy
  Cr  Cr0  1  0.47430483  0.62576770  0.44079972  1.0
  Cr  Cr1  1  0.83562557  0.58978380  0.50179380  1.0
  Cr  Cr2  1  0.86449107  0.72715371  0.86737427  1.0
  Cr  Cr3  1  0.05118908  0.33094928  0.48314736  1.0
  Cr  Cr4  1  0.62797455  0.56990302  0.16295594  1.0
  Cr  Cr5  1  0.91022826  0.71633204  0.15592320  1.0
  Cr  Cr6  1  0.09959467  0.41705931  0.84721148  1.0
  Cr  Cr7  1  0.28698755  0.92574757  0.48990798  1.0
  Cr  Cr8  1  0.33574052  0.38319680  0.66707336  1.0
  Cr  Cr9  1  0.29386137  0.63935337  0.93483250  1.0
  Cr  Cr10  1  0.38299643  0.86601675  0.75603056  1.0
  Cr  Cr11  1  0.64532924  0.06736950  0.29478370  1.0
  Cr  Cr12  1  0.17258817  0.69317195  0.29243512  1.0
  Cr  Cr13  1  0.47470225  0.83047098  0.12861041  1.0
  Cr  Cr14  1  0.18154373  0.89707122  0.00231805  1.0
  Cr  Cr15  1  0.71360771  0.82678559  0.65474929  1.0
  Cr  Cr16  1  0.09739219  0.65568146  0.66108838  1.0
  Cr  Cr17  1  0.64459832  0.07469817  0.83374602  1.0
  Cr  Cr18  1  0.99100350  0.89696651  0.48565390  1.0
  Cr  Cr19  1  0.42823334  0.33989220  0.96622279  1.0
  Cr  Cr20  1  0.14787759  0.40754124  0.14658433  1.0
  Cr  Cr21  1  0.13854036  0.12442039  0.73342354  1.0
  Cr  Cr22  1  0.91715938  0.01273286  0.95523455  1.0
  Cr  Cr23  1  0.69929696  0.80132750  0.35485909  1.0
  Cr  Cr24  1  0.63630977  0.54593047  0.88680820  1.0
  Cr  Cr25  1  0.60291621  0.33952643  0.61450540  1.0
  Cr  Cr26  1  0.37425322  0.10051545  0.09099025  1.0
  Cr  Cr27  1  0.85569739  0.15061817  0.61231226  1.0
  Cr  Cr28  1  0.82634626  0.27335119  0.06344932  1.0
  Cr  Cr29  1  0.39627656  0.36985028  0.35943914  1.0
  Cr  Cr30  1  0.05439358  0.11366075  0.27107047  1.0
  Cr  Cr31  1  0.71794063  0.32740041  0.35256267  1.0
