# generated using pymatgen
data_Cr
_symmetry_space_group_name_H-M   'P 1'
_cell_length_a   9.42001153
_cell_length_b   10.20665438
_cell_length_c   10.26634002
_cell_angle_alpha   88.54152538
_cell_angle_beta   81.91965605
_cell_angle_gamma   90.79989723
_symmetry_Int_Tables_number   1
_chemical_formula_structural   Cr
_chemical_formula_sum   Cr32
_cell_volume   976.80601932
_cell_formula_units_Z   32
loop_
 _symmetry_equiv_pos_site_id
 _symmetry_equiv_pos_as_xyz
  1  'x, y, z'
loop_
 _atom_site_type_symbol
 _atom_site_label
 _atom_site_symmetry_multiplicity
 _atom_site_fract_x
 _atom_site_fract_y
 _atom_site_fract_z
 _atom_site_occupancy
  Cr  Cr0  1  0.52315363  0.16007322  0.52982663  1.0
  Cr  Cr1  1  0.74367115  0.74517630  0.57699740  1.0
  Cr  Cr2  1  0.13381083  0.48588732  0.51121792  1.0
  Cr  Cr3  1  0.45532452  0.86011684  0.73035508  1.0
  Cr  Cr4  1  0.64946531  0.63371704  0.92011252  1.0
  Cr  Cr5  1  0.14867554  0.03029449  0.24297323  1.0
  Cr  Cr6  1  0.73545419  0.08507805  0.11510495  1.0
  Cr  Cr7  1  0.41070541  0.69156351  0.47791237  1.0
  Cr  Cr8  1  0.14284948  0.24984866  0.96419883  1.0
  Cr  Cr9  1  0.53606926  0.56689056  0.19432523  1.0
  Cr  Cr10  1  0.65091135  0.93243632  0.33254382  1.0
  Cr  Cr11  1  0.99280798  0.28196000  0.34149185  1.0
  Cr  Cr12  1  0.58588296  0.35277220  0.99012656  1.0
  Cr  Cr13  1  0.85535087  0.36074195  0.04573169  1.0
  Cr  Cr14  1  0.87151133  0.85821175  0.79681139  1.0
  Cr  Cr15  1  0.09727605  0.51197615  0.81953362  1.0
  Cr  Cr16  1  0.67216528  0.30944373  0.31863367  1.0
  Cr  Cr17  1  0.44007811  0.31400095  0.76362164  1.0
  Cr  Cr18  1  0.18876535  0.06721078  0.73917852  1.0
  Cr  Cr19  1  0.33530216  0.27070807  0.27043353  1.0
  Cr  Cr20  1  0.26678366  0.96965315  0.47721529  1.0
  Cr  Cr21  1  0.38100657  0.05098997  0.02021876  1.0
  Cr  Cr22  1  0.34946368  0.53901847  0.95854815  1.0
  Cr  Cr23  1  0.13921995  0.71346765  0.26171974  1.0
  Cr  Cr24  1  0.89606872  0.14168728  0.85651153  1.0
  Cr  Cr25  1  0.62370824  0.08184469  0.78872045  1.0
  Cr  Cr26  1  0.44528164  0.82408672  0.19747564  1.0
  Cr  Cr27  1  0.81309186  0.77294742  0.13317882  1.0
  Cr  Cr28  1  0.85259554  0.53151546  0.35855950  1.0
  Cr  Cr29  1  0.81855159  0.36317766  0.66254307  1.0
  Cr  Cr30  1  0.95081474  0.97547548  0.51405104  1.0
  Cr  Cr31  1  0.13235187  0.76026636  0.72438674  1.0
