# generated using pymatgen
data_Cr
_symmetry_space_group_name_H-M   'P 1'
_cell_length_a   8.70885106
_cell_length_b   10.19248487
_cell_length_c   10.35139214
_cell_angle_alpha   90.72549784
_cell_angle_beta   90.51101942
_cell_angle_gamma   92.03403513
_symmetry_Int_Tables_number   1
_chemical_formula_structural   Cr
_chemical_formula_sum   Cr32
_cell_volume   918.14668455
_cell_formula_units_Z   32
loop_
 _symmetry_equiv_pos_site_id
 _symmetry_equiv_pos_as_xyz
  1  'x, y, z'
loop_
 _atom_site_type_symbol
 _atom_site_label
 _atom_site_symmetry_multiplicity
 _atom_site_fract_x
 _atom_site_fract_y
 _atom_site_fract_z
 _atom_site_occupancy
  Cr  Cr0  1  0.70209658  0.34551591  0.66749163  1.0
  Cr  Cr1  1  0.43090375  0.18710763  0.37906486  1.0
  Cr  Cr2  1  0.15543873  0.01556332  0.86294374  1.0
  Cr  Cr3  1  0.16217891  0.68408549  0.37517682  1.0
  Cr  Cr4  1  0.49342647  0.40595239  0.19042249  1.0
  Cr  Cr5  1  0.98489222  0.17262388  0.13229970  1.0
  Cr  Cr6  1  0.77259002  0.76256123  0.73275279  1.0
  Cr  Cr7  1  0.46652692  0.97633154  0.58896578  1.0
  Cr  Cr8  1  0.61353398  0.59361568  0.45254060  1.0
  Cr  Cr9  1  0.83799739  0.45421471  0.91583560  1.0
  Cr  Cr10  1  0.49505772  0.24233875  0.85705026  1.0
  Cr  Cr11  1  0.31349290  0.89481422  0.14993406  1.0
  Cr  Cr12  1  0.81978290  0.32123835  0.33333333  1.0
  Cr  Cr13  1  0.64602985  0.16124255  0.11123751  1.0
  Cr  Cr14  1  0.79521305  0.03038683  0.82452513  1.0
  Cr  Cr15  1  0.31034224  0.25949547  0.64252989  1.0
  Cr  Cr16  1  0.06133638  0.52281261  0.66709631  1.0
  Cr  Cr17  1  0.48233468  0.92162952  0.87488671  1.0
  Cr  Cr18  1  0.95587070  0.17383721  0.60612892  1.0
  Cr  Cr19  1  0.63583092  0.69290192  0.98123085  1.0
  Cr  Cr20  1  0.85783149  0.62623354  0.23577965  1.0
  Cr  Cr21  1  0.81270818  0.86864526  0.45673854  1.0
  Cr  Cr22  1  0.92692214  0.90380712  0.04890497  1.0
  Cr  Cr23  1  0.30674688  0.15880121  0.11003687  1.0
  Cr  Cr24  1  0.17091725  0.33931677  0.87112379  1.0
  Cr  Cr25  1  0.45790177  0.58125405  0.75120461  1.0
  Cr  Cr26  1  0.61225031  0.92117863  0.26262217  1.0
  Cr  Cr27  1  0.14334536  0.79327757  0.73533929  1.0
  Cr  Cr28  1  0.07606318  0.64958498  0.04902904  1.0
  Cr  Cr29  1  0.44738134  0.67766790  0.21023829  1.0
  Cr  Cr30  1  0.10016048  0.01757950  0.38544846  1.0
  Cr  Cr31  1  0.18813899  0.40078885  0.35697027  1.0
