# generated using pymatgen
data_Cr
_symmetry_space_group_name_H-M   'P 1'
_cell_length_a   10.06031330
_cell_length_b   10.12936492
_cell_length_c   10.34307874
_cell_angle_alpha   81.56991155
_cell_angle_beta   85.84753379
_cell_angle_gamma   85.43532271
_symmetry_Int_Tables_number   1
_chemical_formula_structural   Cr
_chemical_formula_sum   Cr32
_cell_volume   1037.33816068
_cell_formula_units_Z   32
loop_
 _symmetry_equiv_pos_site_id
 _symmetry_equiv_pos_as_xyz
  1  'x, y, z'
loop_
 _atom_site_type_symbol
 _atom_site_label
 _atom_site_symmetry_multiplicity
 _atom_site_fract_x
 _atom_site_fract_y
 _atom_site_fract_z
 _atom_site_occupancy
  Cr  Cr0  1  0.21466096  0.90194376  0.55530410  1.0
  Cr  Cr1  1  0.68375118  0.35451938  0.91730572  1.0
  Cr  Cr2  1  0.28950247  0.19859271  0.44472362  1.0
  Cr  Cr3  1  0.80028182  0.25265070  0.15660161  1.0
  Cr  Cr4  1  0.74263412  0.59935488  0.31618485  1.0
  Cr  Cr5  1  0.83446973  0.13686597  0.60524685  1.0
  Cr  Cr6  1  0.12108509  0.87471915  0.82215571  1.0
  Cr  Cr7  1  0.84297278  0.48223732  0.57613423  1.0
  Cr  Cr8  1  0.28118122  0.12783702  0.87751971  1.0
  Cr  Cr9  1  0.68871679  0.63424256  0.79328527  1.0
  Cr  Cr10  1  0.03454487  0.61536352  0.72505094  1.0
  Cr  Cr11  1  0.06813634  0.27869599  0.63664898  1.0
  Cr  Cr12  1  0.49207580  0.59969936  0.07505271  1.0
  Cr  Cr13  1  0.56662085  0.11349203  0.90473548  1.0
  Cr  Cr14  1  0.76143307  0.97034293  0.33769960  1.0
  Cr  Cr15  1  0.43309132  0.25765709  0.12137298  1.0
  Cr  Cr16  1  0.30638511  0.45532065  0.52881360  1.0
  Cr  Cr17  1  0.39118579  0.70324343  0.31356764  1.0
  Cr  Cr18  1  0.29654891  0.99593158  0.31395465  1.0
  Cr  Cr19  1  0.32154986  0.41719530  0.80584677  1.0
  Cr  Cr20  1  0.62212584  0.30251672  0.40202714  1.0
  Cr  Cr21  1  0.04641589  0.38000087  0.02358673  1.0
  Cr  Cr22  1  0.59513522  0.35595090  0.66599275  1.0
  Cr  Cr23  1  0.64599587  0.82802526  0.10936543  1.0
  Cr  Cr24  1  0.34407107  0.88940336  0.07091215  1.0
  Cr  Cr25  1  0.00301802  0.39790566  0.33806031  1.0
  Cr  Cr26  1  0.17247514  0.59581312  0.04471518  1.0
  Cr  Cr27  1  0.85132919  0.02494702  0.86049966  1.0
  Cr  Cr28  1  0.38563861  0.67506458  0.66545460  1.0
  Cr  Cr29  1  0.85615608  0.85689324  0.58818739  1.0
  Cr  Cr30  1  0.55992333  0.03015097  0.53940780  1.0
  Cr  Cr31  1  0.05143053  0.09315972  0.14929660  1.0
