# generated using pymatgen
data_Cr
_symmetry_space_group_name_H-M   'P 1'
_cell_length_a   5.13669900
_cell_length_b   5.29964000
_cell_length_c   7.31397900
_cell_angle_alpha   89.99993623
_cell_angle_beta   89.99992737
_cell_angle_gamma   89.99993410
_symmetry_Int_Tables_number   1
_chemical_formula_structural   Cr
_chemical_formula_sum   Cr8
_cell_volume   199.10593057
_cell_formula_units_Z   8
loop_
 _symmetry_equiv_pos_site_id
 _symmetry_equiv_pos_as_xyz
  1  'x, y, z'
loop_
 _atom_site_type_symbol
 _atom_site_label
 _atom_site_symmetry_multiplicity
 _atom_site_fract_x
 _atom_site_fract_y
 _atom_site_fract_z
 _atom_site_occupancy
  Cr  Cr0  1  0.75027400  0.03427200  0.60524000  1.0
  Cr  Cr1  1  0.74972700  0.96572800  0.10524000  1.0
  Cr  Cr2  1  0.25027400  0.46572800  0.10523800  1.0
  Cr  Cr3  1  0.24972400  0.53427200  0.60523700  1.0
  Cr  Cr4  1  0.75026700  0.46571200  0.39476500  1.0
  Cr  Cr5  1  0.74973300  0.53428600  0.89476600  1.0
  Cr  Cr6  1  0.25026700  0.03428700  0.89476500  1.0
  Cr  Cr7  1  0.24973300  0.96571100  0.39476700  1.0
