# generated using pymatgen
data_Cr
_symmetry_space_group_name_H-M   'P 1'
_cell_length_a   8.17257262
_cell_length_b   8.17257262
_cell_length_c   8.17257262
_cell_angle_alpha   109.47122063
_cell_angle_beta   109.47122064
_cell_angle_gamma   109.47122064
_symmetry_Int_Tables_number   1
_chemical_formula_structural   Cr
_chemical_formula_sum   Cr16
_cell_volume   420.19847732
_cell_formula_units_Z   16
loop_
 _symmetry_equiv_pos_site_id
 _symmetry_equiv_pos_as_xyz
  1  'x, y, z'
loop_
 _atom_site_type_symbol
 _atom_site_label
 _atom_site_symmetry_multiplicity
 _atom_site_fract_x
 _atom_site_fract_y
 _atom_site_fract_z
 _atom_site_occupancy
  Cr  Cr0  1  0.00000000  0.00000000  0.00000000  1.0
  Cr  Cr1  1  1.00000000  0.50000000  0.50000000  1.0
  Cr  Cr2  1  0.50000000  0.50000000  1.00000000  1.0
  Cr  Cr3  1  0.50000000  1.00000000  0.50000000  1.0
  Cr  Cr4  1  0.75000000  0.03837700  0.28837700  1.0
  Cr  Cr5  1  0.75000000  0.53837700  0.78837700  1.0
  Cr  Cr6  1  0.96162300  0.21162300  0.75000000  1.0
  Cr  Cr7  1  0.03837700  0.78837700  0.25000000  1.0
  Cr  Cr8  1  0.28837700  0.75000000  0.03837700  1.0
  Cr  Cr9  1  0.78837700  0.75000000  0.53837700  1.0
  Cr  Cr10  1  0.71162300  0.25000000  0.96162300  1.0
  Cr  Cr11  1  0.21162300  0.25000000  0.46162300  1.0
  Cr  Cr12  1  0.53837700  0.28837700  0.25000000  1.0
  Cr  Cr13  1  0.46162300  0.71162300  0.75000000  1.0
  Cr  Cr14  1  0.25000000  0.96162300  0.71162300  1.0
  Cr  Cr15  1  0.25000000  0.46162300  0.21162300  1.0
