# generated using pymatgen
data_Ni
_symmetry_space_group_name_H-M   'P 1'
_cell_length_a   2.90275800
_cell_length_b   5.06564984
_cell_length_c   14.57660900
_cell_angle_alpha   90.00000000
_cell_angle_beta   90.00000000
_cell_angle_gamma   106.64936184
_symmetry_Int_Tables_number   1
_chemical_formula_structural   Ni
_chemical_formula_sum   Ni8
_cell_volume   205.35368644
_cell_formula_units_Z   8
loop_
 _symmetry_equiv_pos_site_id
 _symmetry_equiv_pos_as_xyz
  1  'x, y, z'
loop_
 _atom_site_type_symbol
 _atom_site_label
 _atom_site_symmetry_multiplicity
 _atom_site_fract_x
 _atom_site_fract_y
 _atom_site_fract_z
 _atom_site_occupancy
  Ni  Ni0  1  0.86335500  0.72671200  0.04674700  1.0
  Ni  Ni1  1  0.13664300  0.27328700  0.95325300  1.0
  Ni  Ni2  1  0.86335500  0.72671200  0.45325300  1.0
  Ni  Ni3  1  0.13664300  0.27328700  0.54674700  1.0
  Ni  Ni4  1  0.40602200  0.81204300  0.63537400  1.0
  Ni  Ni5  1  0.59397800  0.18795700  0.36462700  1.0
  Ni  Ni6  1  0.59397800  0.18795700  0.13537300  1.0
  Ni  Ni7  1  0.40602200  0.81204300  0.86462600  1.0
