# generated using pymatgen
data_Fe
_symmetry_space_group_name_H-M   'P 1'
_cell_length_a   6.07651385
_cell_length_b   6.07783100
_cell_length_c   6.08811466
_cell_angle_alpha   119.91566362
_cell_angle_beta   90.03734936
_cell_angle_gamma   119.95710971
_symmetry_Int_Tables_number   1
_chemical_formula_structural   Fe
_chemical_formula_sum   Fe6
_cell_volume   159.24404806
_cell_formula_units_Z   6
loop_
 _symmetry_equiv_pos_site_id
 _symmetry_equiv_pos_as_xyz
  1  'x, y, z'
loop_
 _atom_site_type_symbol
 _atom_site_label
 _atom_site_symmetry_multiplicity
 _atom_site_fract_x
 _atom_site_fract_y
 _atom_site_fract_z
 _atom_site_occupancy
  Fe  Fe0  1  0.37579200  0.50098900  0.63116200  1.0
  Fe  Fe1  1  0.74988275  0.24853350  0.24936475  1.0
  Fe  Fe2  1  0.12309775  0.99858875  0.86871875  1.0
  Fe  Fe3  1  0.75022800  0.25021800  0.74991700  1.0
  Fe  Fe4  1  0.24938650  0.74979850  0.25056550  1.0
  Fe  Fe5  1  0.74957925  0.74937050  0.24998325  1.0
