# generated using pymatgen
data_Fe
_symmetry_space_group_name_H-M   'P 1'
_cell_length_a   2.98881300
_cell_length_b   5.10076598
_cell_length_c   5.11145700
_cell_angle_alpha   106.50684406
_cell_angle_beta   90.00000000
_cell_angle_gamma   90.00000000
_symmetry_Int_Tables_number   1
_chemical_formula_structural   Fe
_chemical_formula_sum   Fe3
_cell_volume   74.71373501
_cell_formula_units_Z   3
loop_
 _symmetry_equiv_pos_site_id
 _symmetry_equiv_pos_as_xyz
  1  'x, y, z'
loop_
 _atom_site_type_symbol
 _atom_site_label
 _atom_site_symmetry_multiplicity
 _atom_site_fract_x
 _atom_site_fract_y
 _atom_site_fract_z
 _atom_site_occupancy
  Fe  Fe0  1  0.50000000  0.31823500  0.28515500  1.0
  Fe  Fe1  1  1.00000000  0.32381250  0.78501100  1.0
  Fe  Fe2  1  1.00000000  0.81956900  0.28627200  1.0
