# generated using pymatgen
data_Fe3O4
_symmetry_space_group_name_H-M   'P 1'
_cell_length_a   6.09223026
_cell_length_b   6.09147720
_cell_length_c   16.97859899
_cell_angle_alpha   90.09081866
_cell_angle_beta   89.84056887
_cell_angle_gamma   90.20343749
_symmetry_Int_Tables_number   1
_chemical_formula_structural   Fe3O4
_chemical_formula_sum   'Fe24 O32'
_cell_volume   630.08019051
_cell_formula_units_Z   8
loop_
 _symmetry_equiv_pos_site_id
 _symmetry_equiv_pos_as_xyz
  1  'x, y, z'
loop_
 _atom_site_type_symbol
 _atom_site_label
 _atom_site_symmetry_multiplicity
 _atom_site_fract_x
 _atom_site_fract_y
 _atom_site_fract_z
 _atom_site_occupancy
  Fe  Fe0  1  0.50023200  0.75263300  0.50338300  1
  Fe  Fe1  1  0.50484700  0.75261400  0.00456800  1
  Fe  Fe2  1  0.99741200  0.74894300  0.75721800  1
  Fe  Fe3  1  0.49818400  0.00031400  0.69365200  1
  Fe  Fe4  1  0.74832700  0.99910500  0.87708900  1
  Fe  Fe5  1  0.25178600  0.49350900  0.13171500  1
  Fe  Fe6  1  0.99553500  0.75709900  0.25274500  1
  Fe  Fe7  1  0.75558200  0.00474000  0.37665800  1
  Fe  Fe8  1  0.24706400  0.99973200  0.88120500  1
  Fe  Fe9  1  0.24420600  0.00430200  0.37583800  1
  Fe  Fe10  1  0.99814500  0.00105600  0.56923300  1
  Fe  Fe11  1  0.49369500  0.50011300  0.81738700  1
  Fe  Fe12  1  0.50155300  0.99669300  0.19083300  1
  Fe  Fe13  1  0.24482500  0.50245100  0.63034500  1
  Fe  Fe14  1  0.50118300  0.50308600  0.31405200  1
  Fe  Fe15  1  0.00015200  0.50065300  0.44416400  1
  Fe  Fe16  1  0.49822100  0.24948500  0.50400300  1
  Fe  Fe17  1  0.50606700  0.24582500  0.00492900  1
  Fe  Fe18  1  0.00644900  0.49836500  0.94481500  1
  Fe  Fe19  1  0.75156100  0.49742600  0.12942200  1
  Fe  Fe20  1  0.99892500  0.25312500  0.25395100  1
  Fe  Fe21  1  0.99845500  0.25101000  0.75681200  1
  Fe  Fe22  1  0.75244700  0.50114600  0.63135400  1
  Fe  Fe23  1  0.99501800  0.99745700  0.07099700  1
  O  O24  1  0.49088700  0.24185900  0.88477800  1
  O  O25  1  0.27240200  0.49657300  0.00996600  1
  O  O26  1  0.27454200  0.00047700  0.49638100  1
  O  O27  1  0.49714800  0.26422300  0.62504100  1
  O  O28  1  0.49991200  0.76624900  0.38002100  1
  O  O29  1  0.24583200  0.50254600  0.74878300  1
  O  O30  1  0.99097500  0.28575300  0.13185700  1
  O  O31  1  0.72236200  0.00024100  0.00115500  1
  O  O32  1  0.77070700  0.99534300  0.25819700  1
  O  O33  1  0.75217200  0.99741100  0.75618900  1
  O  O34  1  0.01614700  0.75732600  0.88309800  1
  O  O35  1  0.27939700  0.50208900  0.50923500  1
  O  O36  1  0.49878100  0.73677400  0.62482400  1
  O  O37  1  0.27824000  0.99736700  0.00134400  1
  O  O38  1  0.24048600  0.50401500  0.25101100  1
  O  O39  1  0.51020600  0.71718000  0.12388900  1
  O  O40  1  0.49206200  0.75362700  0.88588900  1
  O  O41  1  0.99949300  0.22537100  0.37542200  1
  O  O42  1  0.71944200  0.49960200  0.50963900  1
  O  O43  1  0.24881200  0.99932900  0.76180200  1
  O  O44  1  0.00032500  0.77504700  0.37326400  1
  O  O45  1  0.50535700  0.27598500  0.12432300  1
  O  O46  1  0.74705200  0.49992700  0.75032500  1
  O  O47  1  0.72329400  0.00149800  0.49683500  1
  O  O48  1  0.50002600  0.23767000  0.37952500  1
  O  O49  1  0.73734600  0.49697100  0.01008100  1
  O  O50  1  0.99741600  0.71695900  0.13474100  1
  O  O51  1  0.76005600  0.50529500  0.24806600  1
  O  O52  1  0.99896600  0.28026700  0.63026100  1
  O  O53  1  0.22771700  0.99490100  0.25664800  1
  O  O54  1  0.99826500  0.72286100  0.62922900  1
  O  O55  1  0.01430200  0.23838200  0.88180900  1
