# generated using pymatgen
data_Fe
_symmetry_space_group_name_H-M   'P 1'
_cell_length_a   6.06196000
_cell_length_b   6.07076939
_cell_length_c   6.07076939
_cell_angle_alpha   60.16092700
_cell_angle_beta   60.04799091
_cell_angle_gamma   60.04799091
_symmetry_Int_Tables_number   1
_chemical_formula_structural   Fe
_chemical_formula_sum   Fe6
_cell_volume   158.28011774
_cell_formula_units_Z   6
loop_
 _symmetry_equiv_pos_site_id
 _symmetry_equiv_pos_as_xyz
  1  'x, y, z'
loop_
 _atom_site_type_symbol
 _atom_site_label
 _atom_site_symmetry_multiplicity
 _atom_site_fract_x
 _atom_site_fract_y
 _atom_site_fract_z
 _atom_site_occupancy
  Fe  Fe0  1  0.50000000  0.50000000  0.00000000  1.0
  Fe  Fe1  1  0.12475900  0.12524100  0.12524100  1.0
  Fe  Fe2  1  1.00000000  0.50000000  0.50000000  1.0
  Fe  Fe3  1  0.87524100  0.87475900  0.87475900  1.0
  Fe  Fe4  1  0.50000000  1.00000000  0.50000000  1.0
  Fe  Fe5  1  0.50000000  0.50000000  0.50000000  1.0
