# generated using pymatgen
data_Fe
_symmetry_space_group_name_H-M   'P 1'
_cell_length_a   2.93317600
_cell_length_b   9.86818600
_cell_length_c   9.99333573
_cell_angle_alpha   89.96632201
_cell_angle_beta   90.00000000
_cell_angle_gamma   90.00000000
_symmetry_Int_Tables_number   1
_chemical_formula_structural   Fe
_chemical_formula_sum   Fe12
_cell_volume   289.25831528
_cell_formula_units_Z   12
loop_
 _symmetry_equiv_pos_site_id
 _symmetry_equiv_pos_as_xyz
  1  'x, y, z'
loop_
 _atom_site_type_symbol
 _atom_site_label
 _atom_site_symmetry_multiplicity
 _atom_site_fract_x
 _atom_site_fract_y
 _atom_site_fract_z
 _atom_site_occupancy
  Fe  Fe0  1  0.27192800  0.86763400  0.73717700  1.0
  Fe  Fe1  1  0.26018400  0.63014400  0.26087700  1.0
  Fe  Fe2  1  0.73981600  0.13014400  0.26087700  1.0
  Fe  Fe3  1  0.72807200  0.36763400  0.73717700  1.0
  Fe  Fe4  1  0.23936000  0.12304100  0.57463300  1.0
  Fe  Fe5  1  0.76064000  0.62304100  0.57463300  1.0
  Fe  Fe6  1  0.76090300  0.61644600  0.92377100  1.0
  Fe  Fe7  1  0.75163600  0.88270000  0.42488300  1.0
  Fe  Fe8  1  0.75054900  0.87851700  0.07116200  1.0
  Fe  Fe9  1  0.24836400  0.38270000  0.42488300  1.0
  Fe  Fe10  1  0.23909700  0.11644600  0.92377100  1.0
  Fe  Fe11  1  0.24945100  0.37851700  0.07116200  1.0
