# generated using pymatgen
data_Fe
_symmetry_space_group_name_H-M   'P 1'
_cell_length_a   2.94267094
_cell_length_b   5.09881565
_cell_length_c   9.99026188
_cell_angle_alpha   90.10936990
_cell_angle_beta   90.23295843
_cell_angle_gamma   73.27708706
_symmetry_Int_Tables_number   1
_chemical_formula_structural   Fe
_chemical_formula_sum   Fe6
_cell_volume   143.55458011
_cell_formula_units_Z   6
loop_
 _symmetry_equiv_pos_site_id
 _symmetry_equiv_pos_as_xyz
  1  'x, y, z'
loop_
 _atom_site_type_symbol
 _atom_site_label
 _atom_site_symmetry_multiplicity
 _atom_site_fract_x
 _atom_site_fract_y
 _atom_site_fract_z
 _atom_site_occupancy
  Fe  Fe0  1  0.87062600  0.25469900  0.57330000  1.0
  Fe  Fe1  1  0.13122800  0.72794000  0.42391100  1.0
  Fe  Fe2  1  0.86383800  0.27242700  0.92476800  1.0
  Fe  Fe3  1  0.12882200  0.74983800  0.07520000  1.0
  Fe  Fe4  1  0.61795000  0.76484900  0.73978200  1.0
  Fe  Fe5  1  0.38411900  0.23823800  0.23945600  1.0
