# generated using pymatgen
data_Fe
_symmetry_space_group_name_H-M   'P 1'
_cell_length_a   5.99279780
_cell_length_b   6.04761520
_cell_length_c   6.04861865
_cell_angle_alpha   90.66717036
_cell_angle_beta   119.43529338
_cell_angle_gamma   119.38763037
_symmetry_Int_Tables_number   1
_chemical_formula_structural   Fe
_chemical_formula_sum   Fe6
_cell_volume   156.84709859
_cell_formula_units_Z   6
loop_
 _symmetry_equiv_pos_site_id
 _symmetry_equiv_pos_as_xyz
  1  'x, y, z'
loop_
 _atom_site_type_symbol
 _atom_site_label
 _atom_site_symmetry_multiplicity
 _atom_site_fract_x
 _atom_site_fract_y
 _atom_site_fract_z
 _atom_site_occupancy
  Fe  Fe0  1  0.75033300  0.88096200  0.61758700  1.0
  Fe  Fe1  1  0.50176000  0.49785800  0.99951400  1.0
  Fe  Fe2  1  0.99709300  0.49694600  0.49473200  1.0
  Fe  Fe3  1  0.25083000  0.11774300  0.38096300  1.0
  Fe  Fe4  1  0.49595700  0.99441700  0.99646400  1.0
  Fe  Fe5  1  0.00125000  0.49926100  0.99747700  1.0
