# generated using pymatgen
data_Fe
_symmetry_space_group_name_H-M   'P 1'
_cell_length_a   6.06335300
_cell_length_b   6.06571000
_cell_length_c   6.09522418
_cell_angle_alpha   119.83995077
_cell_angle_beta   119.65489796
_cell_angle_gamma   90.00000000
_symmetry_Int_Tables_number   1
_chemical_formula_structural   Fe
_chemical_formula_sum   Fe6
_cell_volume   159.71680880
_cell_formula_units_Z   6
loop_
 _symmetry_equiv_pos_site_id
 _symmetry_equiv_pos_as_xyz
  1  'x, y, z'
loop_
 _atom_site_type_symbol
 _atom_site_label
 _atom_site_symmetry_multiplicity
 _atom_site_fract_x
 _atom_site_fract_y
 _atom_site_fract_z
 _atom_site_occupancy
  Fe  Fe0  1  0.50000000  0.50000000  0.00000000  1.0
  Fe  Fe1  1  0.00000000  0.50000000  0.00000000  1.0
  Fe  Fe2  1  0.62744200  0.87799650  0.75599300  1.0
  Fe  Fe3  1  0.37255800  0.12200350  0.24400700  1.0
  Fe  Fe4  1  0.00000000  0.50000000  0.50000000  1.0
  Fe  Fe5  1  0.00000000  0.00000000  0.50000000  1.0
