# generated using pymatgen
data_Fe
_symmetry_space_group_name_H-M   'P 1'
_cell_length_a   5.98854400
_cell_length_b   6.04022578
_cell_length_c   6.04786825
_cell_angle_alpha   60.79780861
_cell_angle_beta   60.32395597
_cell_angle_gamma   60.28263767
_symmetry_Int_Tables_number   1
_chemical_formula_structural   Fe
_chemical_formula_sum   Fe6
_cell_volume   156.31902728
_cell_formula_units_Z   6
loop_
 _symmetry_equiv_pos_site_id
 _symmetry_equiv_pos_as_xyz
  1  'x, y, z'
loop_
 _atom_site_type_symbol
 _atom_site_label
 _atom_site_symmetry_multiplicity
 _atom_site_fract_x
 _atom_site_fract_y
 _atom_site_fract_z
 _atom_site_occupancy
  Fe  Fe0  1  0.50000000  0.50000000  0.50000000  1.0
  Fe  Fe1  1  0.50000000  0.00000000  1.00000000  1.0
  Fe  Fe2  1  0.12568750  0.12413200  0.62449300  1.0
  Fe  Fe3  1  0.87431250  0.87586800  0.37550700  1.0
  Fe  Fe4  1  0.50000000  0.50000050  0.99999950  1.0
  Fe  Fe5  1  0.00000000  0.50000050  0.99999950  1.0
