# generated using pymatgen
data_Fe
_symmetry_space_group_name_H-M   'P 1'
_cell_length_a   5.92397200
_cell_length_b   6.61708000
_cell_length_c   16.13268400
_cell_angle_alpha   90.00000000
_cell_angle_beta   90.00000000
_cell_angle_gamma   90.00000000
_symmetry_Int_Tables_number   1
_chemical_formula_structural   Fe
_chemical_formula_sum   Fe24
_cell_volume   632.39147901
_cell_formula_units_Z   24
loop_
 _symmetry_equiv_pos_site_id
 _symmetry_equiv_pos_as_xyz
  1  'x, y, z'
loop_
 _atom_site_type_symbol
 _atom_site_label
 _atom_site_symmetry_multiplicity
 _atom_site_fract_x
 _atom_site_fract_y
 _atom_site_fract_z
 _atom_site_occupancy
  Fe  Fe0  1  0.76746800  0.25000000  0.59775300  1.0
  Fe  Fe1  1  0.73646500  0.25000000  0.15500800  1.0
  Fe  Fe2  1  0.51046500  0.75000000  0.14717700  1.0
  Fe  Fe3  1  0.26353500  0.75000000  0.84499200  1.0
  Fe  Fe4  1  0.98084800  0.75000000  0.60136600  1.0
  Fe  Fe5  1  0.73646500  0.75000000  0.34499200  1.0
  Fe  Fe6  1  0.06456500  0.50000000  0.25000000  1.0
  Fe  Fe7  1  0.76746800  0.75000000  0.90224700  1.0
  Fe  Fe8  1  0.48953500  0.75000000  0.64717700  1.0
  Fe  Fe9  1  0.51046500  0.25000000  0.35282300  1.0
  Fe  Fe10  1  0.50000000  0.50000000  0.50000000  1.0
  Fe  Fe11  1  0.93543500  0.50000000  0.75000000  1.0
  Fe  Fe12  1  0.50000000  0.00000000  0.50000000  1.0
  Fe  Fe13  1  0.23253200  0.75000000  0.40224700  1.0
  Fe  Fe14  1  0.23253200  0.25000000  0.09775300  1.0
  Fe  Fe15  1  0.93543500  0.00000000  0.75000000  1.0
  Fe  Fe16  1  0.01915200  0.75000000  0.10136600  1.0
  Fe  Fe17  1  0.06456500  0.00000000  0.25000000  1.0
  Fe  Fe18  1  0.50000000  0.00000000  0.00000000  1.0
  Fe  Fe19  1  0.98084800  0.25000000  0.89863400  1.0
  Fe  Fe20  1  0.26353500  0.25000000  0.65500800  1.0
  Fe  Fe21  1  0.01915200  0.25000000  0.39863400  1.0
  Fe  Fe22  1  0.48953500  0.25000000  0.85282300  1.0
  Fe  Fe23  1  0.50000000  0.50000000  0.00000000  1.0
