# generated using pymatgen
data_Fe
_symmetry_space_group_name_H-M   'P 1'
_cell_length_a   6.01688600
_cell_length_b   6.02743949
_cell_length_c   6.06060641
_cell_angle_alpha   60.65273885
_cell_angle_beta   60.23834730
_cell_angle_gamma   60.05790270
_symmetry_Int_Tables_number   1
_chemical_formula_structural   Fe
_chemical_formula_sum   Fe6
_cell_volume   156.52319409
_cell_formula_units_Z   6
loop_
 _symmetry_equiv_pos_site_id
 _symmetry_equiv_pos_as_xyz
  1  'x, y, z'
loop_
 _atom_site_type_symbol
 _atom_site_label
 _atom_site_symmetry_multiplicity
 _atom_site_fract_x
 _atom_site_fract_y
 _atom_site_fract_z
 _atom_site_occupancy
  Fe  Fe0  1  0.50000000  0.50000000  0.50000000  1.0
  Fe  Fe1  1  0.50000000  1.00000000  0.00000000  1.0
  Fe  Fe2  1  0.12581000  0.62907250  0.11930750  1.0
  Fe  Fe3  1  0.87418950  0.37092800  0.88069300  1.0
  Fe  Fe4  1  0.50000000  0.99999950  0.50000050  1.0
  Fe  Fe5  1  0.00000000  0.99999950  0.50000050  1.0
