# generated using pymatgen
data_Fe
_symmetry_space_group_name_H-M   'P 1'
_cell_length_a   6.05123073
_cell_length_b   6.06343856
_cell_length_c   10.45993534
_cell_angle_alpha   106.29005420
_cell_angle_beta   90.15218355
_cell_angle_gamma   119.81823953
_symmetry_Int_Tables_number   1
_chemical_formula_structural   Fe
_chemical_formula_sum   Fe12
_cell_volume   314.92018906
_cell_formula_units_Z   12
loop_
 _symmetry_equiv_pos_site_id
 _symmetry_equiv_pos_as_xyz
  1  'x, y, z'
loop_
 _atom_site_type_symbol
 _atom_site_label
 _atom_site_symmetry_multiplicity
 _atom_site_fract_x
 _atom_site_fract_y
 _atom_site_fract_z
 _atom_site_occupancy
  Fe  Fe0  1  0.25006700  0.99869500  0.75096300  1.0
  Fe  Fe1  1  0.99936700  0.99673900  0.49692900  1.0
  Fe  Fe2  1  0.74941700  0.99998300  0.75070800  1.0
  Fe  Fe3  1  0.74656500  0.49400300  0.24688700  1.0
  Fe  Fe4  1  0.25131900  0.50291600  0.75195700  1.0
  Fe  Fe5  1  0.18866400  0.38250900  0.06259900  1.0
  Fe  Fe6  1  0.68749500  0.38262800  0.56358500  1.0
  Fe  Fe7  1  0.31239200  0.61971400  0.43778000  1.0
  Fe  Fe8  1  0.81170600  0.61690300  0.93690600  1.0
  Fe  Fe9  1  0.74882400  0.99992400  0.24909000  1.0
  Fe  Fe10  1  0.49974700  0.00226300  0.00134600  1.0
  Fe  Fe11  1  0.25081500  0.99993900  0.24918500  1.0
