# generated using pymatgen
data_Fe
_symmetry_space_group_name_H-M   'P 1'
_cell_length_a   6.05610284
_cell_length_b   6.05610284
_cell_length_c   6.08678679
_cell_angle_alpha   90.31838665
_cell_angle_beta   119.47847977
_cell_angle_gamma   119.98842891
_symmetry_Int_Tables_number   1
_chemical_formula_structural   Fe
_chemical_formula_sum   Fe6
_cell_volume   158.68223735
_cell_formula_units_Z   6
loop_
 _symmetry_equiv_pos_site_id
 _symmetry_equiv_pos_as_xyz
  1  'x, y, z'
loop_
 _atom_site_type_symbol
 _atom_site_label
 _atom_site_symmetry_multiplicity
 _atom_site_fract_x
 _atom_site_fract_y
 _atom_site_fract_z
 _atom_site_occupancy
  Fe  Fe0  1  1.00000000  0.00000000  0.50000000  1.0
  Fe  Fe1  1  0.50000000  0.50000000  0.50000000  1.0
  Fe  Fe2  1  0.50000000  0.50000000  0.00000000  1.0
  Fe  Fe3  1  0.00000000  0.50000000  0.50000000  1.0
  Fe  Fe4  1  0.24672250  0.87296600  0.11968850  1.0
  Fe  Fe5  1  0.75327750  0.12703400  0.88031150  1.0
