# generated using pymatgen
data_Fe
_symmetry_space_group_name_H-M   'P 1'
_cell_length_a   2.95200000
_cell_length_b   5.11071411
_cell_length_c   10.00110100
_cell_angle_alpha   90.00000000
_cell_angle_beta   90.00000000
_cell_angle_gamma   106.78642912
_symmetry_Int_Tables_number   1
_chemical_formula_structural   Fe
_chemical_formula_sum   Fe6
_cell_volume   144.45537358
_cell_formula_units_Z   6
loop_
 _symmetry_equiv_pos_site_id
 _symmetry_equiv_pos_as_xyz
  1  'x, y, z'
loop_
 _atom_site_type_symbol
 _atom_site_label
 _atom_site_symmetry_multiplicity
 _atom_site_fract_x
 _atom_site_fract_y
 _atom_site_fract_z
 _atom_site_occupancy
  Fe  Fe0  1  0.38199900  0.76399800  0.75000000  1.0
  Fe  Fe1  1  0.61800100  0.23600200  0.25000000  1.0
  Fe  Fe2  1  0.13219800  0.26439600  0.57523600  1.0
  Fe  Fe3  1  0.86780200  0.73560400  0.42476400  1.0
  Fe  Fe4  1  0.13219800  0.26439600  0.92476400  1.0
  Fe  Fe5  1  0.86780200  0.73560400  0.07523600  1.0
