# generated using pymatgen
data_Fe
_symmetry_space_group_name_H-M   'P 1'
_cell_length_a   6.08817200
_cell_length_b   6.08913800
_cell_length_c   8.64636650
_cell_angle_alpha   90.00000000
_cell_angle_beta   90.00000000
_cell_angle_gamma   90.00000000
_symmetry_Int_Tables_number   1
_chemical_formula_structural   Fe
_chemical_formula_sum   Fe12
_cell_volume   320.53567337
_cell_formula_units_Z   12
loop_
 _symmetry_equiv_pos_site_id
 _symmetry_equiv_pos_as_xyz
  1  'x, y, z'
loop_
 _atom_site_type_symbol
 _atom_site_label
 _atom_site_symmetry_multiplicity
 _atom_site_fract_x
 _atom_site_fract_y
 _atom_site_fract_z
 _atom_site_occupancy
  Fe  Fe0  1  0.50000000  0.00000000  0.61991800  1.0
  Fe  Fe1  1  0.25191400  0.50000000  0.75426900  1.0
  Fe  Fe2  1  0.74798150  0.00000000  0.24727200  1.0
  Fe  Fe3  1  1.00000000  0.50000000  0.12639200  1.0
  Fe  Fe4  1  0.50000000  0.50000000  0.37027400  1.0
  Fe  Fe5  1  0.50000000  0.25105400  0.99740600  1.0
  Fe  Fe6  1  1.00000000  0.00000000  0.87658800  1.0
  Fe  Fe7  1  0.00000000  0.74656100  0.50112600  1.0
  Fe  Fe8  1  0.50000000  0.74894600  0.99740600  1.0
  Fe  Fe9  1  0.74808600  0.50000000  0.75426900  1.0
  Fe  Fe10  1  0.25201850  0.00000000  0.24727200  1.0
  Fe  Fe11  1  1.00000000  0.25343900  0.50112600  1.0
