# generated using pymatgen
data_Ti
_symmetry_space_group_name_H-M   'P 1'
_cell_length_a   5.79788156
_cell_length_b   5.79788156
_cell_length_c   14.14208100
_cell_angle_alpha   90.00000000
_cell_angle_beta   90.00000000
_cell_angle_gamma   119.51118447
_symmetry_Int_Tables_number   1
_chemical_formula_structural   Ti
_chemical_formula_sum   Ti6
_cell_volume   413.71455429
_cell_formula_units_Z   6
loop_
 _symmetry_equiv_pos_site_id
 _symmetry_equiv_pos_as_xyz
  1  'x, y, z'
loop_
 _atom_site_type_symbol
 _atom_site_label
 _atom_site_symmetry_multiplicity
 _atom_site_fract_x
 _atom_site_fract_y
 _atom_site_fract_z
 _atom_site_occupancy
  Ti  Ti0  1  0.69439700  0.35809500  0.34577100  1.0
  Ti  Ti1  1  0.35809500  0.69439700  0.65422900  1.0
  Ti  Ti2  1  0.97064800  0.97064800  0.00000000  1.0
  Ti  Ti3  1  0.64190500  0.30560300  0.15422900  1.0
  Ti  Ti4  1  0.02935200  0.02935200  0.50000000  1.0
  Ti  Ti5  1  0.30560300  0.64190500  0.84577100  1.0
