# generated using pymatgen
data_DyMn
_symmetry_space_group_name_H-M   'P 1'
_cell_length_a   3.91586900
_cell_length_b   7.11975000
_cell_length_c   7.11975055
_cell_angle_alpha   119.99999746
_cell_angle_beta   90.00000000
_cell_angle_gamma   90.00000000
_symmetry_Int_Tables_number   1
_chemical_formula_structural   DyMn
_chemical_formula_sum   'Dy3 Mn3'
_cell_volume   171.90492521
_cell_formula_units_Z   3
loop_
 _symmetry_equiv_pos_site_id
 _symmetry_equiv_pos_as_xyz
  1  'x, y, z'
loop_
 _atom_site_type_symbol
 _atom_site_label
 _atom_site_symmetry_multiplicity
 _atom_site_fract_x
 _atom_site_fract_y
 _atom_site_fract_z
 _atom_site_occupancy
  Dy  Dy0  1  0.50000000  1.00000000  0.59548400  1.0
  Dy  Dy1  1  0.50000000  0.59548400  1.00000000  1.0
  Dy  Dy2  1  0.50000000  0.40451600  0.40451600  1.0
  Mn  Mn3  1  1.00000000  0.22112200  1.00000000  1.0
  Mn  Mn4  1  1.00000000  0.77887800  0.77887800  1.0
  Mn  Mn5  1  0.00000000  0.00000000  0.22112200  1.0
