# generated using pymatgen
data_Fe
_symmetry_space_group_name_H-M   'P 1'
_cell_length_a   6.18182200
_cell_length_b   6.18182209
_cell_length_c   73.85290300
_cell_angle_alpha   90.00000000
_cell_angle_beta   90.00000000
_cell_angle_gamma   119.99999951
_symmetry_Int_Tables_number   1
_chemical_formula_structural   Fe
_chemical_formula_sum   Fe24
_cell_volume   2444.16883806
_cell_formula_units_Z   24
loop_
 _symmetry_equiv_pos_site_id
 _symmetry_equiv_pos_as_xyz
  1  'x, y, z'
loop_
 _atom_site_type_symbol
 _atom_site_label
 _atom_site_symmetry_multiplicity
 _atom_site_fract_x
 _atom_site_fract_y
 _atom_site_fract_z
 _atom_site_occupancy
  Fe  Fe0  1  0.66666667  0.33333333  0.29168700  1.0
  Fe  Fe1  1  0.00000000  0.00000000  0.45855800  1.0
  Fe  Fe2  1  0.33333333  0.66666667  0.45797100  1.0
  Fe  Fe3  1  0.66666667  0.33333333  0.95818900  1.0
  Fe  Fe4  1  0.33333333  0.66666667  0.87542600  1.0
  Fe  Fe5  1  0.00000000  0.00000000  0.29149800  1.0
  Fe  Fe6  1  0.66666667  0.33333333  0.12457400  1.0
  Fe  Fe7  1  0.66666667  0.33333333  0.37509700  1.0
  Fe  Fe8  1  0.66666667  0.33333333  0.54202900  1.0
  Fe  Fe9  1  0.00000000  0.00000000  0.95848700  1.0
  Fe  Fe10  1  0.33333333  0.66666667  0.37443000  1.0
  Fe  Fe11  1  0.33333333  0.66666667  0.20801400  1.0
  Fe  Fe12  1  0.66666667  0.33333333  0.87599800  1.0
  Fe  Fe13  1  0.00000000  0.00000000  0.79144400  1.0
  Fe  Fe14  1  0.00000000  0.00000000  0.54144200  1.0
  Fe  Fe15  1  0.66666667  0.33333333  0.79198600  1.0
  Fe  Fe16  1  0.00000000  0.00000000  0.20855600  1.0
  Fe  Fe17  1  0.00000000  0.00000000  0.70850200  1.0
  Fe  Fe18  1  0.00000000  0.00000000  0.04151300  1.0
  Fe  Fe19  1  0.66666667  0.33333333  0.62557000  1.0
  Fe  Fe20  1  0.33333333  0.66666667  0.12400200  1.0
  Fe  Fe21  1  0.33333333  0.66666667  0.04181100  1.0
  Fe  Fe22  1  0.33333333  0.66666667  0.62490300  1.0
  Fe  Fe23  1  0.33333333  0.66666667  0.70831300  1.0
