# generated using pymatgen
data_Fe
_symmetry_space_group_name_H-M   'P 1'
_cell_length_a   3.86554100
_cell_length_b   7.52402576
_cell_length_c   7.67057778
_cell_angle_alpha   77.96127585
_cell_angle_beta   78.40144753
_cell_angle_gamma   84.68770751
_symmetry_Int_Tables_number   1
_chemical_formula_structural   Fe
_chemical_formula_sum   Fe2
_cell_volume   213.43360333
_cell_formula_units_Z   2
loop_
 _symmetry_equiv_pos_site_id
 _symmetry_equiv_pos_as_xyz
  1  'x, y, z'
loop_
 _atom_site_type_symbol
 _atom_site_label
 _atom_site_symmetry_multiplicity
 _atom_site_fract_x
 _atom_site_fract_y
 _atom_site_fract_z
 _atom_site_occupancy
  Fe  Fe0  1  0.14755400  0.70208900  0.22201400  1.0
  Fe  Fe1  1  0.22558500  0.32647500  0.52975300  1.0
