# generated using pymatgen
data_V
_symmetry_space_group_name_H-M   'P 1'
_cell_length_a   3.69130800
_cell_length_b   5.89915652
_cell_length_c   11.42386300
_cell_angle_alpha   90.00000000
_cell_angle_beta   90.00000000
_cell_angle_gamma   108.23212100
_symmetry_Int_Tables_number   1
_chemical_formula_structural   V
_chemical_formula_sum   V4
_cell_volume   236.27288928
_cell_formula_units_Z   4
loop_
 _symmetry_equiv_pos_site_id
 _symmetry_equiv_pos_as_xyz
  1  'x, y, z'
loop_
 _atom_site_type_symbol
 _atom_site_label
 _atom_site_symmetry_multiplicity
 _atom_site_fract_x
 _atom_site_fract_y
 _atom_site_fract_z
 _atom_site_occupancy
  V  V0  1  0.20416000  0.40832000  0.59967000  1.0
  V  V1  1  0.20416000  0.40832000  0.90033000  1.0
  V  V2  1  0.79584000  0.59168000  0.40033000  1.0
  V  V3  1  0.79584000  0.59168000  0.09967000  1.0
