# generated using pymatgen
data_V
_symmetry_space_group_name_H-M   'P 1'
_cell_length_a   3.64533600
_cell_length_b   4.99759200
_cell_length_c   11.51513354
_cell_angle_alpha   90.00000000
_cell_angle_beta   89.95504959
_cell_angle_gamma   90.00000000
_symmetry_Int_Tables_number   1
_chemical_formula_structural   V
_chemical_formula_sum   V4
_cell_volume   209.78151006
_cell_formula_units_Z   4
loop_
 _symmetry_equiv_pos_site_id
 _symmetry_equiv_pos_as_xyz
  1  'x, y, z'
loop_
 _atom_site_type_symbol
 _atom_site_label
 _atom_site_symmetry_multiplicity
 _atom_site_fract_x
 _atom_site_fract_y
 _atom_site_fract_z
 _atom_site_occupancy
  V  V0  1  0.25024025  0.89002150  0.40141900  1.0
  V  V1  1  0.24975975  0.89002150  0.09858100  1.0
  V  V2  1  0.74975975  0.10997850  0.59858100  1.0
  V  V3  1  0.75024025  0.10997850  0.90141900  1.0
