# generated using pymatgen
data_V
_symmetry_space_group_name_H-M   'P 1'
_cell_length_a   3.65155127
_cell_length_b   5.10106801
_cell_length_c   11.46721959
_cell_angle_alpha   89.99350667
_cell_angle_beta   89.99646723
_cell_angle_gamma   89.99473445
_symmetry_Int_Tables_number   1
_chemical_formula_structural   V
_chemical_formula_sum   V4
_cell_volume   213.59773356
_cell_formula_units_Z   4
loop_
 _symmetry_equiv_pos_site_id
 _symmetry_equiv_pos_as_xyz
  1  'x, y, z'
loop_
 _atom_site_type_symbol
 _atom_site_label
 _atom_site_symmetry_multiplicity
 _atom_site_fract_x
 _atom_site_fract_y
 _atom_site_fract_z
 _atom_site_occupancy
  V  V0  1  0.49988400  0.39123300  0.84891000  1.0
  V  V1  1  0.99991500  0.59756100  0.65100300  1.0
  V  V2  1  0.50015300  0.40468800  0.15091100  1.0
  V  V3  1  0.00000900  0.61079400  0.34888600  1.0
