# generated using pymatgen
data_Ta
_symmetry_space_group_name_H-M   'P 1'
_cell_length_a   7.44413581
_cell_length_b   7.44500799
_cell_length_c   12.67807023
_cell_angle_alpha   105.73839282
_cell_angle_beta   90.74533090
_cell_angle_gamma   118.86891630
_symmetry_Int_Tables_number   1
_chemical_formula_structural   Ta
_chemical_formula_sum   Ta8
_cell_volume   583.54911590
_cell_formula_units_Z   8
loop_
 _symmetry_equiv_pos_site_id
 _symmetry_equiv_pos_as_xyz
  1  'x, y, z'
loop_
 _atom_site_type_symbol
 _atom_site_label
 _atom_site_symmetry_multiplicity
 _atom_site_fract_x
 _atom_site_fract_y
 _atom_site_fract_z
 _atom_site_occupancy
  Ta  Ta0  1  0.99665839  0.99577472  0.00137565  1.0
  Ta  Ta1  1  0.24094690  0.00093220  0.75305777  1.0
  Ta  Ta2  1  0.50103239  0.49869450  0.99453068  1.0
  Ta  Ta3  1  0.95841381  0.48324790  0.51240538  1.0
  Ta  Ta4  1  0.74972431  0.99891874  0.25316109  1.0
  Ta  Ta5  1  0.30039559  0.59763793  0.30020582  1.0
  Ta  Ta6  1  0.50561870  0.99971624  0.99607789  1.0
  Ta  Ta7  1  0.95412796  0.98375867  0.51456429  1.0
