# generated using pymatgen
data_Mn
_symmetry_space_group_name_H-M   'P 1'
_cell_length_a   6.89448500
_cell_length_b   9.77042800
_cell_length_c   10.58891357
_cell_angle_alpha   90.00000000
_cell_angle_beta   91.60002263
_cell_angle_gamma   90.00000000
_symmetry_Int_Tables_number   1
_chemical_formula_structural   Mn
_chemical_formula_sum   Mn8
_cell_volume   713.01302025
_cell_formula_units_Z   8
loop_
 _symmetry_equiv_pos_site_id
 _symmetry_equiv_pos_as_xyz
  1  'x, y, z'
loop_
 _atom_site_type_symbol
 _atom_site_label
 _atom_site_symmetry_multiplicity
 _atom_site_fract_x
 _atom_site_fract_y
 _atom_site_fract_z
 _atom_site_occupancy
  Mn  Mn0  1  0.21917500  0.91966700  0.78093900  1.0
  Mn  Mn1  1  0.77942200  0.41655800  0.72048700  1.0
  Mn  Mn2  1  0.77942200  0.58344200  0.22048700  1.0
  Mn  Mn3  1  0.21917500  0.08033300  0.28093900  1.0
  Mn  Mn4  1  0.42371800  0.91654700  0.57600600  1.0
  Mn  Mn5  1  0.57580200  0.41799400  0.92598300  1.0
  Mn  Mn6  1  0.57580200  0.58200600  0.42598300  1.0
  Mn  Mn7  1  0.42371800  0.08345300  0.07600600  1.0
