# generated using pymatgen
data_Fe
_symmetry_space_group_name_H-M   'P 1'
_cell_length_a   7.22153900
_cell_length_b   7.22129600
_cell_length_c   7.22211500
_cell_angle_alpha   89.99963504
_cell_angle_beta   89.99935737
_cell_angle_gamma   89.99888128
_symmetry_Int_Tables_number   1
_chemical_formula_structural   Fe
_chemical_formula_sum   Fe4
_cell_volume   376.62514117
_cell_formula_units_Z   4
loop_
 _symmetry_equiv_pos_site_id
 _symmetry_equiv_pos_as_xyz
  1  'x, y, z'
loop_
 _atom_site_type_symbol
 _atom_site_label
 _atom_site_symmetry_multiplicity
 _atom_site_fract_x
 _atom_site_fract_y
 _atom_site_fract_z
 _atom_site_occupancy
  Fe  Fe0  1  0.25386300  0.74616700  0.74613900  1.0
  Fe  Fe1  1  0.75385400  0.25384500  0.75386200  1.0
  Fe  Fe2  1  0.74615400  0.75385900  0.24610700  1.0
  Fe  Fe3  1  0.24613200  0.24615700  0.25388600  1.0
