# generated using pymatgen
data_Fe
_symmetry_space_group_name_H-M   'P 1'
_cell_length_a   10.12488000
_cell_length_b   10.12487975
_cell_length_c   22.91587400
_cell_angle_alpha   90.00000000
_cell_angle_beta   90.00000000
_cell_angle_gamma   120.00000082
_symmetry_Int_Tables_number   1
_chemical_formula_structural   Fe
_chemical_formula_sum   Fe24
_cell_volume   2034.44902381
_cell_formula_units_Z   24
loop_
 _symmetry_equiv_pos_site_id
 _symmetry_equiv_pos_as_xyz
  1  'x, y, z'
loop_
 _atom_site_type_symbol
 _atom_site_label
 _atom_site_symmetry_multiplicity
 _atom_site_fract_x
 _atom_site_fract_y
 _atom_site_fract_z
 _atom_site_occupancy
  Fe  Fe0  1  0.85614400  0.68883900  0.32095400  1.0
  Fe  Fe1  1  0.81285300  0.69628700  0.99036000  1.0
  Fe  Fe2  1  0.82622500  0.61323800  0.62323000  1.0
  Fe  Fe3  1  0.88343400  0.18714700  0.32369300  1.0
  Fe  Fe4  1  0.66882400  0.34497500  0.18163900  1.0
  Fe  Fe5  1  0.67615100  0.33117500  0.51497300  1.0
  Fe  Fe6  1  0.65502400  0.32384800  0.84830600  1.0
  Fe  Fe7  1  0.83269500  0.14385600  0.65428800  1.0
  Fe  Fe8  1  0.78701300  0.17377500  0.95656300  1.0
  Fe  Fe9  1  0.38676200  0.21298700  0.28989600  1.0
  Fe  Fe10  1  0.69628700  0.88343400  0.15702600  1.0
  Fe  Fe11  1  0.68883900  0.83269500  0.48762100  1.0
  Fe  Fe12  1  0.31116100  0.16730500  0.98762100  1.0
  Fe  Fe13  1  0.30371300  0.11656600  0.65702600  1.0
  Fe  Fe14  1  0.61323800  0.78701300  0.78989600  1.0
  Fe  Fe15  1  0.21298700  0.82622500  0.45656300  1.0
  Fe  Fe16  1  0.16730500  0.85614400  0.15428800  1.0
  Fe  Fe17  1  0.34497600  0.67615200  0.34830600  1.0
  Fe  Fe18  1  0.32384900  0.66882500  0.01497300  1.0
  Fe  Fe19  1  0.33117600  0.65502500  0.68163900  1.0
  Fe  Fe20  1  0.11656600  0.81285300  0.82369300  1.0
  Fe  Fe21  1  0.17377500  0.38676200  0.12323000  1.0
  Fe  Fe22  1  0.18714700  0.30371300  0.49036000  1.0
  Fe  Fe23  1  0.14385600  0.31116100  0.82095400  1.0
