# generated using pymatgen
data_Fe
_symmetry_space_group_name_H-M   'P 1'
_cell_length_a   9.96981400
_cell_length_b   10.16317527
_cell_length_c   16.64096360
_cell_angle_alpha   97.28577876
_cell_angle_beta   90.00000000
_cell_angle_gamma   119.37260638
_symmetry_Int_Tables_number   1
_chemical_formula_structural   Fe
_chemical_formula_sum   Fe16
_cell_volume   1453.74598563
_cell_formula_units_Z   16
loop_
 _symmetry_equiv_pos_site_id
 _symmetry_equiv_pos_as_xyz
  1  'x, y, z'
loop_
 _atom_site_type_symbol
 _atom_site_label
 _atom_site_symmetry_multiplicity
 _atom_site_fract_x
 _atom_site_fract_y
 _atom_site_fract_z
 _atom_site_occupancy
  Fe  Fe0  1  0.92260300  0.16483700  0.75046000  1.0
  Fe  Fe1  1  0.18208200  0.48590000  0.50278800  1.0
  Fe  Fe2  1  0.86223700  0.54357600  0.00004000  1.0
  Fe  Fe3  1  0.92712600  0.66997400  0.75015500  1.0
  Fe  Fe4  1  0.18065300  0.98597400  0.50198500  1.0
  Fe  Fe5  1  0.36144100  0.04270600  0.00090100  1.0
  Fe  Fe6  1  0.30381800  0.48590000  0.00278800  1.0
  Fe  Fe7  1  0.42970700  0.22624000  0.75271900  1.0
  Fe  Fe8  1  0.24223400  0.16483700  0.25046000  1.0
  Fe  Fe9  1  0.29723300  0.71974200  0.25022500  1.0
  Fe  Fe10  1  0.42250900  0.71974200  0.75022500  1.0
  Fe  Fe11  1  0.68126500  0.04270600  0.50090100  1.0
  Fe  Fe12  1  0.74284800  0.66997400  0.25015500  1.0
  Fe  Fe13  1  0.68133900  0.54357600  0.50004000  1.0
  Fe  Fe14  1  0.79653300  0.22624000  0.25271900  1.0
  Fe  Fe15  1  0.80532100  0.98597400  0.00198500  1.0
