# generated using pymatgen
data_Fe
_symmetry_space_group_name_H-M   'P 1'
_cell_length_a   5.18527711
_cell_length_b   6.13163658
_cell_length_c   9.63045783
_cell_angle_alpha   90.02008621
_cell_angle_beta   95.62939668
_cell_angle_gamma   90.10218915
_symmetry_Int_Tables_number   1
_chemical_formula_structural   Fe
_chemical_formula_sum   Fe4
_cell_volume   304.71580330
_cell_formula_units_Z   4
loop_
 _symmetry_equiv_pos_site_id
 _symmetry_equiv_pos_as_xyz
  1  'x, y, z'
loop_
 _atom_site_type_symbol
 _atom_site_label
 _atom_site_symmetry_multiplicity
 _atom_site_fract_x
 _atom_site_fract_y
 _atom_site_fract_z
 _atom_site_occupancy
  Fe  Fe0  1  0.29602900  0.11257900  0.83657600  1.0
  Fe  Fe1  1  0.70839700  0.88766500  0.16086600  1.0
  Fe  Fe2  1  0.20716400  0.61329000  0.66054000  1.0
  Fe  Fe3  1  0.79177600  0.38721500  0.33794400  1.0
