# generated using pymatgen
data_Fe
_symmetry_space_group_name_H-M   'P 1'
_cell_length_a   7.43721201
_cell_length_b   7.43721155
_cell_length_c   9.61615200
_cell_angle_alpha   90.00000000
_cell_angle_beta   90.00000000
_cell_angle_gamma   120.00000202
_symmetry_Int_Tables_number   1
_chemical_formula_structural   Fe
_chemical_formula_sum   Fe6
_cell_volume   460.63002091
_cell_formula_units_Z   6
loop_
 _symmetry_equiv_pos_site_id
 _symmetry_equiv_pos_as_xyz
  1  'x, y, z'
loop_
 _atom_site_type_symbol
 _atom_site_label
 _atom_site_symmetry_multiplicity
 _atom_site_fract_x
 _atom_site_fract_y
 _atom_site_fract_z
 _atom_site_occupancy
  Fe  Fe0  1  0.07292500  0.59624900  0.01449900  1.0
  Fe  Fe1  1  0.40375100  0.47667600  0.01449900  1.0
  Fe  Fe2  1  0.52332400  0.92707500  0.01449900  1.0
  Fe  Fe3  1  0.59624900  0.07292500  0.51449900  1.0
  Fe  Fe4  1  0.47667600  0.40375100  0.51449900  1.0
  Fe  Fe5  1  0.92707500  0.52332400  0.51449900  1.0
