# generated using pymatgen
data_Fe
_symmetry_space_group_name_H-M   'P 1'
_cell_length_a   5.43141800
_cell_length_b   7.99080179
_cell_length_c   8.56640892
_cell_angle_alpha   75.89316546
_cell_angle_beta   90.00148488
_cell_angle_gamma   90.00015780
_symmetry_Int_Tables_number   1
_chemical_formula_structural   Fe
_chemical_formula_sum   Fe4
_cell_volume   360.58179772
_cell_formula_units_Z   4
loop_
 _symmetry_equiv_pos_site_id
 _symmetry_equiv_pos_as_xyz
  1  'x, y, z'
loop_
 _atom_site_type_symbol
 _atom_site_label
 _atom_site_symmetry_multiplicity
 _atom_site_fract_x
 _atom_site_fract_y
 _atom_site_fract_z
 _atom_site_occupancy
  Fe  Fe0  1  0.66340900  0.87027800  0.79819700  1.0
  Fe  Fe1  1  0.17325600  0.36175700  0.60838500  1.0
  Fe  Fe2  1  0.33679400  0.87043500  0.29806500  1.0
  Fe  Fe3  1  0.82663300  0.36176000  0.10841700  1.0
