# generated using pymatgen
data_Fe
_symmetry_space_group_name_H-M   'P 1'
_cell_length_a   9.95300200
_cell_length_b   10.15055244
_cell_length_c   17.35436968
_cell_angle_alpha   74.74501674
_cell_angle_beta   73.33605013
_cell_angle_gamma   60.64173757
_symmetry_Int_Tables_number   1
_chemical_formula_structural   Fe
_chemical_formula_sum   Fe16
_cell_volume   1448.08914979
_cell_formula_units_Z   16
loop_
 _symmetry_equiv_pos_site_id
 _symmetry_equiv_pos_as_xyz
  1  'x, y, z'
loop_
 _atom_site_type_symbol
 _atom_site_label
 _atom_site_symmetry_multiplicity
 _atom_site_fract_x
 _atom_site_fract_y
 _atom_site_fract_z
 _atom_site_occupancy
  Fe  Fe0  1  0.74416900  0.87931000  0.56313700  1.0
  Fe  Fe1  1  0.00236700  0.05475400  0.81207800  1.0
  Fe  Fe2  1  0.31258700  0.88032300  0.06295500  1.0
  Fe  Fe3  1  0.05868300  0.49728200  0.81265600  1.0
  Fe  Fe4  1  0.55734800  0.00288100  0.81344400  1.0
  Fe  Fe5  1  0.37433400  0.32116100  0.06186700  1.0
  Fe  Fe6  1  0.63137900  0.99728200  0.31265600  1.0
  Fe  Fe7  1  0.12617200  0.05856800  0.31132400  1.0
  Fe  Fe8  1  0.50393600  0.55856800  0.81132400  1.0
  Fe  Fe9  1  0.62632700  0.50288100  0.31344400  1.0
  Fe  Fe10  1  0.87262500  0.81912600  0.06218500  1.0
  Fe  Fe11  1  0.24606400  0.31912600  0.56218500  1.0
  Fe  Fe12  1  0.24263800  0.82116100  0.56186700  1.0
  Fe  Fe13  1  0.13080100  0.55475400  0.31207800  1.0
  Fe  Fe14  1  0.74413500  0.38032300  0.56295500  1.0
  Fe  Fe15  1  0.81338400  0.37931000  0.06313700  1.0
