# generated using pymatgen
data_Fe
_symmetry_space_group_name_H-M   'P 1'
_cell_length_a   8.64378384
_cell_length_b   8.64378384
_cell_length_c   8.64378351
_cell_angle_alpha   107.65274601
_cell_angle_beta   107.65274601
_cell_angle_gamma   107.65275480
_symmetry_Int_Tables_number   1
_chemical_formula_structural   Fe
_chemical_formula_sum   Fe6
_cell_volume   527.97559771
_cell_formula_units_Z   6
loop_
 _symmetry_equiv_pos_site_id
 _symmetry_equiv_pos_as_xyz
  1  'x, y, z'
loop_
 _atom_site_type_symbol
 _atom_site_label
 _atom_site_symmetry_multiplicity
 _atom_site_fract_x
 _atom_site_fract_y
 _atom_site_fract_z
 _atom_site_occupancy
  Fe  Fe0  1  0.94795300  0.54261500  0.76969100  1.0
  Fe  Fe1  1  0.46326700  0.23176700  0.05686600  1.0
  Fe  Fe2  1  0.76969100  0.94795300  0.54261500  1.0
  Fe  Fe3  1  0.23176700  0.05686600  0.46326700  1.0
  Fe  Fe4  1  0.54261500  0.76969100  0.94795300  1.0
  Fe  Fe5  1  0.05686600  0.46326700  0.23176700  1.0
