# generated using pymatgen
data_Fe
_symmetry_space_group_name_H-M   'P 1'
_cell_length_a   5.13892071
_cell_length_b   8.57255360
_cell_length_c   8.75970394
_cell_angle_alpha   106.89944333
_cell_angle_beta   89.96572450
_cell_angle_gamma   89.95375158
_symmetry_Int_Tables_number   1
_chemical_formula_structural   Fe
_chemical_formula_sum   Fe4
_cell_volume   369.23245054
_cell_formula_units_Z   4
loop_
 _symmetry_equiv_pos_site_id
 _symmetry_equiv_pos_as_xyz
  1  'x, y, z'
loop_
 _atom_site_type_symbol
 _atom_site_label
 _atom_site_symmetry_multiplicity
 _atom_site_fract_x
 _atom_site_fract_y
 _atom_site_fract_z
 _atom_site_occupancy
  Fe  Fe0  1  0.67733500  0.51935200  0.75367800  1.0
  Fe  Fe1  1  0.18861700  0.63922000  0.25835200  1.0
  Fe  Fe2  1  0.32266600  0.01954400  0.75374200  1.0
  Fe  Fe3  1  0.81180600  0.13915500  0.25863500  1.0
