# generated using pymatgen
data_Fe
_symmetry_space_group_name_H-M   'P 1'
_cell_length_a   5.16150047
_cell_length_b   5.17023717
_cell_length_c   9.60161963
_cell_angle_alpha   90.46205039
_cell_angle_beta   93.59855311
_cell_angle_gamma   119.50900966
_symmetry_Int_Tables_number   1
_chemical_formula_structural   Fe
_chemical_formula_sum   Fe2
_cell_volume   222.32798478
_cell_formula_units_Z   2
loop_
 _symmetry_equiv_pos_site_id
 _symmetry_equiv_pos_as_xyz
  1  'x, y, z'
loop_
 _atom_site_type_symbol
 _atom_site_label
 _atom_site_symmetry_multiplicity
 _atom_site_fract_x
 _atom_site_fract_y
 _atom_site_fract_z
 _atom_site_occupancy
  Fe  Fe0  1  0.68435400  0.35388200  0.88147000  1.0
  Fe  Fe1  1  0.34968200  0.66525950  0.38317450  1.0
