# generated using pymatgen
data_Fe
_symmetry_space_group_name_H-M   'P 1'
_cell_length_a   5.14273600
_cell_length_b   5.15529151
_cell_length_c   8.20332385
_cell_angle_alpha   87.72865788
_cell_angle_beta   85.44261373
_cell_angle_gamma   60.08053177
_symmetry_Int_Tables_number   1
_chemical_formula_structural   Fe
_chemical_formula_sum   Fe2
_cell_volume   187.90766491
_cell_formula_units_Z   2
loop_
 _symmetry_equiv_pos_site_id
 _symmetry_equiv_pos_as_xyz
  1  'x, y, z'
loop_
 _atom_site_type_symbol
 _atom_site_label
 _atom_site_symmetry_multiplicity
 _atom_site_fract_x
 _atom_site_fract_y
 _atom_site_fract_z
 _atom_site_occupancy
  Fe  Fe0  1  0.74953300  0.59488400  0.29625800  1.0
  Fe  Fe1  1  0.34441700  0.40511600  0.79625800  1.0
