# generated using pymatgen
data_Fe
_symmetry_space_group_name_H-M   'P 1'
_cell_length_a   5.54813815
_cell_length_b   5.55054423
_cell_length_c   6.28578863
_cell_angle_alpha   103.80569598
_cell_angle_beta   103.80233452
_cell_angle_gamma   117.34290634
_symmetry_Int_Tables_number   1
_chemical_formula_structural   Fe
_chemical_formula_sum   Fe2
_cell_volume   152.77117061
_cell_formula_units_Z   2
loop_
 _symmetry_equiv_pos_site_id
 _symmetry_equiv_pos_as_xyz
  1  'x, y, z'
loop_
 _atom_site_type_symbol
 _atom_site_label
 _atom_site_symmetry_multiplicity
 _atom_site_fract_x
 _atom_site_fract_y
 _atom_site_fract_z
 _atom_site_occupancy
  Fe  Fe0  1  0.81235600  0.18770700  0.24975200  1.0
  Fe  Fe1  1  0.56205400  0.43841000  0.75020600  1.0
