# generated using pymatgen
data_Fe
_symmetry_space_group_name_H-M   'P 1'
_cell_length_a   5.88795469
_cell_length_b   7.48293787
_cell_length_c   9.25294009
_cell_angle_alpha   105.57922785
_cell_angle_beta   99.70005108
_cell_angle_gamma   98.14704377
_symmetry_Int_Tables_number   1
_chemical_formula_structural   Fe
_chemical_formula_sum   Fe4
_cell_volume   379.50611802
_cell_formula_units_Z   4
loop_
 _symmetry_equiv_pos_site_id
 _symmetry_equiv_pos_as_xyz
  1  'x, y, z'
loop_
 _atom_site_type_symbol
 _atom_site_label
 _atom_site_symmetry_multiplicity
 _atom_site_fract_x
 _atom_site_fract_y
 _atom_site_fract_z
 _atom_site_occupancy
  Fe  Fe0  1  0.50141735  0.01443948  0.75748010  1.0
  Fe  Fe1  1  0.49861034  0.98548446  0.24249962  1.0
  Fe  Fe2  1  0.62490380  0.50801063  0.36354298  1.0
  Fe  Fe3  1  0.37495209  0.49217952  0.63648941  1.0
