# generated using pymatgen
data_Fe
_symmetry_space_group_name_H-M   'P 1'
_cell_length_a   4.60649029
_cell_length_b   5.25597735
_cell_length_c   7.52431561
_cell_angle_alpha   89.61964784
_cell_angle_beta   76.94171873
_cell_angle_gamma   76.19025340
_symmetry_Int_Tables_number   1
_chemical_formula_structural   Fe
_chemical_formula_sum   Fe2
_cell_volume   172.11949512
_cell_formula_units_Z   2
loop_
 _symmetry_equiv_pos_site_id
 _symmetry_equiv_pos_as_xyz
  1  'x, y, z'
loop_
 _atom_site_type_symbol
 _atom_site_label
 _atom_site_symmetry_multiplicity
 _atom_site_fract_x
 _atom_site_fract_y
 _atom_site_fract_z
 _atom_site_occupancy
  Fe  Fe0  1  0.95433700  0.23504900  0.39576300  1.0
  Fe  Fe1  1  0.04565600  0.76493800  0.60423900  1.0
