# generated using pymatgen
data_Fe
_symmetry_space_group_name_H-M   'P 1'
_cell_length_a   4.74644100
_cell_length_b   6.09022600
_cell_length_c   10.44373000
_cell_angle_alpha   90.00273019
_cell_angle_beta   89.99924065
_cell_angle_gamma   90.00071024
_symmetry_Int_Tables_number   1
_chemical_formula_structural   Fe
_chemical_formula_sum   Fe4
_cell_volume   301.89584148
_cell_formula_units_Z   4
loop_
 _symmetry_equiv_pos_site_id
 _symmetry_equiv_pos_as_xyz
  1  'x, y, z'
loop_
 _atom_site_type_symbol
 _atom_site_label
 _atom_site_symmetry_multiplicity
 _atom_site_fract_x
 _atom_site_fract_y
 _atom_site_fract_z
 _atom_site_occupancy
  Fe  Fe0  1  0.47524900  0.75000400  0.78196600  1.0
  Fe  Fe1  1  0.02475600  0.75000300  0.28196500  1.0
  Fe  Fe2  1  0.97510000  0.25000000  0.71809600  1.0
  Fe  Fe3  1  0.52491600  0.25000000  0.21809800  1.0
