# generated using pymatgen
data_Fe
_symmetry_space_group_name_H-M   'P 1'
_cell_length_a   4.95935900
_cell_length_b   5.40373653
_cell_length_c   6.36935207
_cell_angle_alpha   86.91513928
_cell_angle_beta   90.00390821
_cell_angle_gamma   62.68342989
_symmetry_Int_Tables_number   1
_chemical_formula_structural   Fe
_chemical_formula_sum   Fe2
_cell_volume   151.37906437
_cell_formula_units_Z   2
loop_
 _symmetry_equiv_pos_site_id
 _symmetry_equiv_pos_as_xyz
  1  'x, y, z'
loop_
 _atom_site_type_symbol
 _atom_site_label
 _atom_site_symmetry_multiplicity
 _atom_site_fract_x
 _atom_site_fract_y
 _atom_site_fract_z
 _atom_site_occupancy
  Fe  Fe0  1  0.98408650  0.99997100  0.00000200  1.0
  Fe  Fe1  1  0.96091200  0.00001900  0.50000600  1.0
