# generated using pymatgen
data_Fe
_symmetry_space_group_name_H-M   'P 1'
_cell_length_a   7.90014600
_cell_length_b   8.74640000
_cell_length_c   15.32486583
_cell_angle_alpha   91.10109855
_cell_angle_beta   90.00000000
_cell_angle_gamma   90.00000000
_symmetry_Int_Tables_number   1
_chemical_formula_structural   Fe
_chemical_formula_sum   Fe12
_cell_volume   1058.71954551
_cell_formula_units_Z   12
loop_
 _symmetry_equiv_pos_site_id
 _symmetry_equiv_pos_as_xyz
  1  'x, y, z'
loop_
 _atom_site_type_symbol
 _atom_site_label
 _atom_site_symmetry_multiplicity
 _atom_site_fract_x
 _atom_site_fract_y
 _atom_site_fract_z
 _atom_site_occupancy
  Fe  Fe0  1  0.66875000  0.05200900  0.40316300  1.0
  Fe  Fe1  1  0.82375500  0.07578300  0.76573000  1.0
  Fe  Fe2  1  0.66835000  0.10146400  0.08067500  1.0
  Fe  Fe3  1  0.16835000  0.39853600  0.41932500  1.0
  Fe  Fe4  1  0.32375500  0.42421700  0.73427000  1.0
  Fe  Fe5  1  0.16875000  0.44799100  0.09683700  1.0
  Fe  Fe6  1  0.83125000  0.55200900  0.90316300  1.0
  Fe  Fe7  1  0.67624500  0.57578300  0.26573000  1.0
  Fe  Fe8  1  0.83165000  0.60146400  0.58067500  1.0
  Fe  Fe9  1  0.33165000  0.89853600  0.91932500  1.0
  Fe  Fe10  1  0.17624500  0.92421700  0.23427000  1.0
  Fe  Fe11  1  0.33125000  0.94799100  0.59683700  1.0
