# generated using pymatgen
data_Fe
_symmetry_space_group_name_H-M   'P 1'
_cell_length_a   6.06375819
_cell_length_b   6.29964000
_cell_length_c   9.98182328
_cell_angle_alpha   108.13264374
_cell_angle_beta   95.17468888
_cell_angle_gamma   99.85490219
_symmetry_Int_Tables_number   1
_chemical_formula_structural   Fe
_chemical_formula_sum   Fe4
_cell_volume   352.80231853
_cell_formula_units_Z   4
loop_
 _symmetry_equiv_pos_site_id
 _symmetry_equiv_pos_as_xyz
  1  'x, y, z'
loop_
 _atom_site_type_symbol
 _atom_site_label
 _atom_site_symmetry_multiplicity
 _atom_site_fract_x
 _atom_site_fract_y
 _atom_site_fract_z
 _atom_site_occupancy
  Fe  Fe0  1  0.62687643  0.55351359  0.32222190  1.0
  Fe  Fe1  1  0.50104488  0.98091867  0.74222163  1.0
  Fe  Fe2  1  0.49895512  0.01908133  0.25777837  1.0
  Fe  Fe3  1  0.37312357  0.44648641  0.67777810  1.0
