# generated using pymatgen
data_Fe
_symmetry_space_group_name_H-M   'P 1'
_cell_length_a   4.93536700
_cell_length_b   7.70223500
_cell_length_c   18.47944730
_cell_angle_alpha   90.74551475
_cell_angle_beta   90.00000000
_cell_angle_gamma   90.00000000
_symmetry_Int_Tables_number   1
_chemical_formula_structural   Fe
_chemical_formula_sum   Fe8
_cell_volume   702.40635283
_cell_formula_units_Z   8
loop_
 _symmetry_equiv_pos_site_id
 _symmetry_equiv_pos_as_xyz
  1  'x, y, z'
loop_
 _atom_site_type_symbol
 _atom_site_label
 _atom_site_symmetry_multiplicity
 _atom_site_fract_x
 _atom_site_fract_y
 _atom_site_fract_z
 _atom_site_occupancy
  Fe  Fe0  1  0.22012700  0.83396300  0.77339900  1.0
  Fe  Fe1  1  0.27987300  0.83396300  0.27339900  1.0
  Fe  Fe2  1  0.77466800  0.65731200  0.51733900  1.0
  Fe  Fe3  1  0.72533200  0.65731200  0.01733900  1.0
  Fe  Fe4  1  0.27466800  0.34268800  0.98266100  1.0
  Fe  Fe5  1  0.22533200  0.34268800  0.48266100  1.0
  Fe  Fe6  1  0.72012700  0.16603700  0.72660100  1.0
  Fe  Fe7  1  0.77987300  0.16603700  0.22660100  1.0
