# generated using pymatgen
data_Fe
_symmetry_space_group_name_H-M   'P 1'
_cell_length_a   4.87846500
_cell_length_b   8.07826300
_cell_length_c   16.99989400
_cell_angle_alpha   90.00000000
_cell_angle_beta   90.00000000
_cell_angle_gamma   90.00000000
_symmetry_Int_Tables_number   1
_chemical_formula_structural   Fe
_chemical_formula_sum   Fe8
_cell_volume   669.95771880
_cell_formula_units_Z   8
loop_
 _symmetry_equiv_pos_site_id
 _symmetry_equiv_pos_as_xyz
  1  'x, y, z'
loop_
 _atom_site_type_symbol
 _atom_site_label
 _atom_site_symmetry_multiplicity
 _atom_site_fract_x
 _atom_site_fract_y
 _atom_site_fract_z
 _atom_site_occupancy
  Fe  Fe0  1  0.60079200  0.06865300  0.28271900  1.0
  Fe  Fe1  1  0.48228300  0.15416100  0.05609600  1.0
  Fe  Fe2  1  0.98228300  0.34583900  0.55609600  1.0
  Fe  Fe3  1  0.10079200  0.43134700  0.78271900  1.0
  Fe  Fe4  1  0.60079200  0.56865300  0.21728100  1.0
  Fe  Fe5  1  0.48228300  0.65416100  0.44390400  1.0
  Fe  Fe6  1  0.98228300  0.84583900  0.94390400  1.0
  Fe  Fe7  1  0.10079200  0.93134700  0.71728100  1.0
