# generated using pymatgen
data_Fe
_symmetry_space_group_name_H-M   'P 1'
_cell_length_a   5.34450008
_cell_length_b   7.91870012
_cell_length_c   8.37002804
_cell_angle_alpha   90.00789456
_cell_angle_beta   90.00826971
_cell_angle_gamma   89.98195466
_symmetry_Int_Tables_number   1
_chemical_formula_structural   Fe
_chemical_formula_sum   Fe4
_cell_volume   354.23206204
_cell_formula_units_Z   4
loop_
 _symmetry_equiv_pos_site_id
 _symmetry_equiv_pos_as_xyz
  1  'x, y, z'
loop_
 _atom_site_type_symbol
 _atom_site_label
 _atom_site_symmetry_multiplicity
 _atom_site_fract_x
 _atom_site_fract_y
 _atom_site_fract_z
 _atom_site_occupancy
  Fe  Fe0  1  0.52419400  0.67881900  0.43974300  1.0
  Fe  Fe1  1  0.52417800  0.17880000  0.06050900  1.0
  Fe  Fe2  1  0.02417000  0.82120800  0.93952800  1.0
  Fe  Fe3  1  0.02434500  0.32113800  0.56030100  1.0
