# generated using pymatgen
data_Fe
_symmetry_space_group_name_H-M   'P 1'
_cell_length_a   4.94256003
_cell_length_b   7.46420302
_cell_length_c   9.24799107
_cell_angle_alpha   89.99450866
_cell_angle_beta   89.98742935
_cell_angle_gamma   89.99719656
_symmetry_Int_Tables_number   1
_chemical_formula_structural   Fe
_chemical_formula_sum   Fe4
_cell_volume   341.17938722
_cell_formula_units_Z   4
loop_
 _symmetry_equiv_pos_site_id
 _symmetry_equiv_pos_as_xyz
  1  'x, y, z'
loop_
 _atom_site_type_symbol
 _atom_site_label
 _atom_site_symmetry_multiplicity
 _atom_site_fract_x
 _atom_site_fract_y
 _atom_site_fract_z
 _atom_site_occupancy
  Fe  Fe0  1  0.17176800  0.23144900  0.62501500  1.0
  Fe  Fe1  1  0.82873400  0.73127200  0.87468700  1.0
  Fe  Fe2  1  0.32902000  0.76866400  0.12529600  1.0
  Fe  Fe3  1  0.67112200  0.26871200  0.37456000  1.0
