# generated using pymatgen
data_Fe
_symmetry_space_group_name_H-M   'P 1'
_cell_length_a   5.11225766
_cell_length_b   6.89708605
_cell_length_c   10.25386101
_cell_angle_alpha   90.00379076
_cell_angle_beta   89.99948328
_cell_angle_gamma   89.83471630
_symmetry_Int_Tables_number   1
_chemical_formula_structural   Fe
_chemical_formula_sum   Fe4
_cell_volume   361.54636298
_cell_formula_units_Z   4
loop_
 _symmetry_equiv_pos_site_id
 _symmetry_equiv_pos_as_xyz
  1  'x, y, z'
loop_
 _atom_site_type_symbol
 _atom_site_label
 _atom_site_symmetry_multiplicity
 _atom_site_fract_x
 _atom_site_fract_y
 _atom_site_fract_z
 _atom_site_occupancy
  Fe  Fe0  1  0.29390900  0.49919900  0.65629800  1.0
  Fe  Fe1  1  0.20593700  0.00070700  0.15634700  1.0
  Fe  Fe2  1  0.79414400  0.99929400  0.84362400  1.0
  Fe  Fe3  1  0.70590200  0.50077100  0.34362400  1.0
