# generated using pymatgen
data_Fe
_symmetry_space_group_name_H-M   'P 1'
_cell_length_a   5.80452600
_cell_length_b   7.68489000
_cell_length_c   13.98183900
_cell_angle_alpha   90.00000000
_cell_angle_beta   90.00000000
_cell_angle_gamma   90.00000000
_symmetry_Int_Tables_number   1
_chemical_formula_structural   Fe
_chemical_formula_sum   Fe8
_cell_volume   623.68990303
_cell_formula_units_Z   8
loop_
 _symmetry_equiv_pos_site_id
 _symmetry_equiv_pos_as_xyz
  1  'x, y, z'
loop_
 _atom_site_type_symbol
 _atom_site_label
 _atom_site_symmetry_multiplicity
 _atom_site_fract_x
 _atom_site_fract_y
 _atom_site_fract_z
 _atom_site_occupancy
  Fe  Fe0  1  0.15964700  0.18411500  0.21843300  1.0
  Fe  Fe1  1  0.65964700  0.18411500  0.28156700  1.0
  Fe  Fe2  1  0.65964700  0.31588500  0.78156700  1.0
  Fe  Fe3  1  0.15964700  0.31588500  0.71843300  1.0
  Fe  Fe4  1  0.34035300  0.68411500  0.21843300  1.0
  Fe  Fe5  1  0.84035300  0.68411500  0.28156700  1.0
  Fe  Fe6  1  0.34035300  0.81588500  0.71843300  1.0
  Fe  Fe7  1  0.84035300  0.81588500  0.78156700  1.0
