# generated using pymatgen
data_Fe
_symmetry_space_group_name_H-M   'P 1'
_cell_length_a   5.13599900
_cell_length_b   10.22301600
_cell_length_c   13.67166800
_cell_angle_alpha   90.00000000
_cell_angle_beta   90.00000000
_cell_angle_gamma   90.00000000
_symmetry_Int_Tables_number   1
_chemical_formula_structural   Fe
_chemical_formula_sum   Fe8
_cell_volume   717.83639636
_cell_formula_units_Z   8
loop_
 _symmetry_equiv_pos_site_id
 _symmetry_equiv_pos_as_xyz
  1  'x, y, z'
loop_
 _atom_site_type_symbol
 _atom_site_label
 _atom_site_symmetry_multiplicity
 _atom_site_fract_x
 _atom_site_fract_y
 _atom_site_fract_z
 _atom_site_occupancy
  Fe  Fe0  1  0.93348100  0.03100300  0.49897300  1.0
  Fe  Fe1  1  0.54805100  0.21967700  0.25003800  1.0
  Fe  Fe2  1  0.54805100  0.28032300  0.75003800  1.0
  Fe  Fe3  1  0.93348100  0.46899700  0.99897300  1.0
  Fe  Fe4  1  0.06651900  0.53100300  0.49897300  1.0
  Fe  Fe5  1  0.45194900  0.71967700  0.25003800  1.0
  Fe  Fe6  1  0.45194900  0.78032300  0.75003800  1.0
  Fe  Fe7  1  0.06651900  0.96899700  0.99897300  1.0
