# generated using pymatgen
data_Fe
_symmetry_space_group_name_H-M   'P 1'
_cell_length_a   7.54978000
_cell_length_b   8.48817400
_cell_length_c   15.00624948
_cell_angle_alpha   89.60176224
_cell_angle_beta   90.00000000
_cell_angle_gamma   90.00000000
_symmetry_Int_Tables_number   1
_chemical_formula_structural   Fe
_chemical_formula_sum   Fe12
_cell_volume   961.63495615
_cell_formula_units_Z   12
loop_
 _symmetry_equiv_pos_site_id
 _symmetry_equiv_pos_as_xyz
  1  'x, y, z'
loop_
 _atom_site_type_symbol
 _atom_site_label
 _atom_site_symmetry_multiplicity
 _atom_site_fract_x
 _atom_site_fract_y
 _atom_site_fract_z
 _atom_site_occupancy
  Fe  Fe0  1  0.51636300  0.72834900  0.06558200  1.0
  Fe  Fe1  1  0.47376200  0.74308400  0.40909100  1.0
  Fe  Fe2  1  0.57733900  0.74010200  0.75281000  1.0
  Fe  Fe3  1  0.07733900  0.75989800  0.74719000  1.0
  Fe  Fe4  1  0.97376200  0.75691600  0.09090900  1.0
  Fe  Fe5  1  0.01636300  0.77165100  0.43441800  1.0
  Fe  Fe6  1  0.98363700  0.22834900  0.56558200  1.0
  Fe  Fe7  1  0.02623800  0.24308400  0.90909100  1.0
  Fe  Fe8  1  0.92266100  0.24010200  0.25281000  1.0
  Fe  Fe9  1  0.42266100  0.25989800  0.24719000  1.0
  Fe  Fe10  1  0.52623800  0.25691600  0.59090900  1.0
  Fe  Fe11  1  0.48363700  0.27165100  0.93441800  1.0
