# generated using pymatgen
data_Fe
_symmetry_space_group_name_H-M   'P 1'
_cell_length_a   10.65159400
_cell_length_b   10.65159487
_cell_length_c   12.70458500
_cell_angle_alpha   90.00000000
_cell_angle_beta   90.00000000
_cell_angle_gamma   119.99999730
_symmetry_Int_Tables_number   1
_chemical_formula_structural   Fe
_chemical_formula_sum   Fe12
_cell_volume   1248.30402518
_cell_formula_units_Z   12
loop_
 _symmetry_equiv_pos_site_id
 _symmetry_equiv_pos_as_xyz
  1  'x, y, z'
loop_
 _atom_site_type_symbol
 _atom_site_label
 _atom_site_symmetry_multiplicity
 _atom_site_fract_x
 _atom_site_fract_y
 _atom_site_fract_z
 _atom_site_occupancy
  Fe  Fe0  1  1.00000000  0.74738800  0.16666700  1.0
  Fe  Fe1  1  0.00000000  0.25261200  0.16666700  1.0
  Fe  Fe2  1  0.75218800  0.50437600  0.83333300  1.0
  Fe  Fe3  1  0.75218800  0.24781200  0.50000000  1.0
  Fe  Fe4  1  0.49562400  0.24781200  0.16666700  1.0
  Fe  Fe5  1  0.74738800  1.00000000  0.83333300  1.0
  Fe  Fe6  1  0.74738800  0.74738800  0.50000000  1.0
  Fe  Fe7  1  0.25261200  1.00000000  0.83333300  1.0
  Fe  Fe8  1  0.50437600  0.75218800  0.16666700  1.0
  Fe  Fe9  1  0.24781200  0.75218800  0.50000000  1.0
  Fe  Fe10  1  0.24781200  0.49562400  0.83333300  1.0
  Fe  Fe11  1  0.25261200  0.25261200  0.50000000  1.0
