# generated using pymatgen
data_Fe
_symmetry_space_group_name_H-M   'P 1'
_cell_length_a   5.60538999
_cell_length_b   6.31985773
_cell_length_c   9.20678282
_cell_angle_alpha   75.68064294
_cell_angle_beta   83.12747297
_cell_angle_gamma   76.39749096
_symmetry_Int_Tables_number   1
_chemical_formula_structural   Fe
_chemical_formula_sum   Fe4
_cell_volume   306.50026424
_cell_formula_units_Z   4
loop_
 _symmetry_equiv_pos_site_id
 _symmetry_equiv_pos_as_xyz
  1  'x, y, z'
loop_
 _atom_site_type_symbol
 _atom_site_label
 _atom_site_symmetry_multiplicity
 _atom_site_fract_x
 _atom_site_fract_y
 _atom_site_fract_z
 _atom_site_occupancy
  Fe  Fe0  1  0.66838000  0.05021100  0.21080500  1.0
  Fe  Fe1  1  0.77612000  0.16978300  0.58632100  1.0
  Fe  Fe2  1  0.34515000  0.94290600  0.79657700  1.0
  Fe  Fe3  1  0.22631100  0.83122400  0.41306700  1.0
