# generated using pymatgen
data_Fe
_symmetry_space_group_name_H-M   'P 1'
_cell_length_a   5.77552100
_cell_length_b   9.94085884
_cell_length_c   10.93028100
_cell_angle_alpha   90.00000000
_cell_angle_beta   90.00000000
_cell_angle_gamma   91.34376028
_symmetry_Int_Tables_number   1
_chemical_formula_structural   Fe
_chemical_formula_sum   Fe8
_cell_volume   627.37462564
_cell_formula_units_Z   8
loop_
 _symmetry_equiv_pos_site_id
 _symmetry_equiv_pos_as_xyz
  1  'x, y, z'
loop_
 _atom_site_type_symbol
 _atom_site_label
 _atom_site_symmetry_multiplicity
 _atom_site_fract_x
 _atom_site_fract_y
 _atom_site_fract_z
 _atom_site_occupancy
  Fe  Fe0  1  0.11883200  0.73105200  0.90356400  1.0
  Fe  Fe1  1  0.11883200  0.23105200  0.59643600  1.0
  Fe  Fe2  1  0.34244000  0.98645100  0.37461700  1.0
  Fe  Fe3  1  0.34244000  0.48645100  0.12538300  1.0
  Fe  Fe4  1  0.65756000  0.51354900  0.87461700  1.0
  Fe  Fe5  1  0.65756000  0.01354900  0.62538300  1.0
  Fe  Fe6  1  0.88116800  0.76894800  0.40356400  1.0
  Fe  Fe7  1  0.88116800  0.26894800  0.09643600  1.0
