# generated using pymatgen
data_Fe
_symmetry_space_group_name_H-M   'P 1'
_cell_length_a   5.65995212
_cell_length_b   6.29747737
_cell_length_c   9.21601028
_cell_angle_alpha   76.52691635
_cell_angle_beta   82.53230075
_cell_angle_gamma   76.23095753
_symmetry_Int_Tables_number   1
_chemical_formula_structural   Fe
_chemical_formula_sum   Fe4
_cell_volume   309.30288230
_cell_formula_units_Z   4
loop_
 _symmetry_equiv_pos_site_id
 _symmetry_equiv_pos_as_xyz
  1  'x, y, z'
loop_
 _atom_site_type_symbol
 _atom_site_label
 _atom_site_symmetry_multiplicity
 _atom_site_fract_x
 _atom_site_fract_y
 _atom_site_fract_z
 _atom_site_occupancy
  Fe  Fe0  1  0.66280000  0.07213300  0.19840100  1.0
  Fe  Fe1  1  0.22823700  0.82964200  0.41441800  1.0
  Fe  Fe2  1  0.32846100  0.92377200  0.79917100  1.0
  Fe  Fe3  1  0.76620000  0.17320800  0.58601300  1.0
