# generated using pymatgen
data_Fe
_symmetry_space_group_name_H-M   'P 1'
_cell_length_a   5.00398508
_cell_length_b   5.00433473
_cell_length_c   8.59102992
_cell_angle_alpha   74.82457196
_cell_angle_beta   74.78513804
_cell_angle_gamma   61.25632878
_symmetry_Int_Tables_number   1
_chemical_formula_structural   Fe
_chemical_formula_sum   Fe2
_cell_volume   179.66100213
_cell_formula_units_Z   2
loop_
 _symmetry_equiv_pos_site_id
 _symmetry_equiv_pos_as_xyz
  1  'x, y, z'
loop_
 _atom_site_type_symbol
 _atom_site_label
 _atom_site_symmetry_multiplicity
 _atom_site_fract_x
 _atom_site_fract_y
 _atom_site_fract_z
 _atom_site_occupancy
  Fe  Fe0  1  0.30492650  0.19773050  0.24912350  1.0
  Fe  Fe1  1  0.69907950  0.80234350  0.74918750  1.0
