# generated using pymatgen
data_Fe
_symmetry_space_group_name_H-M   'P 1'
_cell_length_a   5.15377600
_cell_length_b   6.20647400
_cell_length_c   11.26452100
_cell_angle_alpha   89.99952732
_cell_angle_beta   89.99806696
_cell_angle_gamma   89.99949296
_symmetry_Int_Tables_number   1
_chemical_formula_structural   Fe
_chemical_formula_sum   Fe4
_cell_volume   360.31571814
_cell_formula_units_Z   4
loop_
 _symmetry_equiv_pos_site_id
 _symmetry_equiv_pos_as_xyz
  1  'x, y, z'
loop_
 _atom_site_type_symbol
 _atom_site_label
 _atom_site_symmetry_multiplicity
 _atom_site_fract_x
 _atom_site_fract_y
 _atom_site_fract_z
 _atom_site_occupancy
  Fe  Fe0  1  0.25794100  0.28246300  0.41689600  1.0
  Fe  Fe1  1  0.75793900  0.78246000  0.08309800  1.0
  Fe  Fe2  1  0.25793800  0.21757600  0.91690600  1.0
  Fe  Fe3  1  0.75794300  0.71755500  0.58309700  1.0
