# generated using pymatgen
data_Fe
_symmetry_space_group_name_H-M   'P 1'
_cell_length_a   7.81624800
_cell_length_b   8.89536100
_cell_length_c   15.39903540
_cell_angle_alpha   90.94836274
_cell_angle_beta   90.00000000
_cell_angle_gamma   90.00000000
_symmetry_Int_Tables_number   1
_chemical_formula_structural   Fe
_chemical_formula_sum   Fe12
_cell_volume   1070.52282350
_cell_formula_units_Z   12
loop_
 _symmetry_equiv_pos_site_id
 _symmetry_equiv_pos_as_xyz
  1  'x, y, z'
loop_
 _atom_site_type_symbol
 _atom_site_label
 _atom_site_symmetry_multiplicity
 _atom_site_fract_x
 _atom_site_fract_y
 _atom_site_fract_z
 _atom_site_occupancy
  Fe  Fe0  1  0.66879200  0.54323500  0.40666900  1.0
  Fe  Fe1  1  0.83193000  0.58043900  0.76897500  1.0
  Fe  Fe2  1  0.66784100  0.60287800  0.07545300  1.0
  Fe  Fe3  1  0.16784100  0.89712200  0.42454700  1.0
  Fe  Fe4  1  0.33193000  0.91956100  0.73102500  1.0
  Fe  Fe5  1  0.16879200  0.95676500  0.09333100  1.0
  Fe  Fe6  1  0.83120800  0.04323500  0.90666900  1.0
  Fe  Fe7  1  0.66807000  0.08043900  0.26897500  1.0
  Fe  Fe8  1  0.83215900  0.10287800  0.57545300  1.0
  Fe  Fe9  1  0.33215900  0.39712200  0.92454700  1.0
  Fe  Fe10  1  0.16807000  0.41956100  0.23102500  1.0
  Fe  Fe11  1  0.33120800  0.45676500  0.59333100  1.0
