# generated using pymatgen
data_Fe
_symmetry_space_group_name_H-M   'P 1'
_cell_length_a   4.98939341
_cell_length_b   4.98960538
_cell_length_c   16.32515242
_cell_angle_alpha   85.31364880
_cell_angle_beta   85.31831883
_cell_angle_gamma   101.87189148
_symmetry_Int_Tables_number   1
_chemical_formula_structural   Fe
_chemical_formula_sum   Fe4
_cell_volume   394.36986991
_cell_formula_units_Z   4
loop_
 _symmetry_equiv_pos_site_id
 _symmetry_equiv_pos_as_xyz
  1  'x, y, z'
loop_
 _atom_site_type_symbol
 _atom_site_label
 _atom_site_symmetry_multiplicity
 _atom_site_fract_x
 _atom_site_fract_y
 _atom_site_fract_z
 _atom_site_occupancy
  Fe  Fe0  1  0.32240000  0.16816100  0.25108000  1.0
  Fe  Fe1  1  0.67743400  0.83155300  0.74891400  1.0
  Fe  Fe2  1  0.16781300  0.32206800  0.75109000  1.0
  Fe  Fe3  1  0.83207400  0.67784800  0.24887400  1.0
