# generated using pymatgen
data_Fe
_symmetry_space_group_name_H-M   'P 1'
_cell_length_a   5.11029300
_cell_length_b   10.18542300
_cell_length_c   13.73501600
_cell_angle_alpha   90.00000000
_cell_angle_beta   90.00000000
_cell_angle_gamma   90.00000000
_symmetry_Int_Tables_number   1
_chemical_formula_structural   Fe
_chemical_formula_sum   Fe8
_cell_volume   714.91439343
_cell_formula_units_Z   8
loop_
 _symmetry_equiv_pos_site_id
 _symmetry_equiv_pos_as_xyz
  1  'x, y, z'
loop_
 _atom_site_type_symbol
 _atom_site_label
 _atom_site_symmetry_multiplicity
 _atom_site_fract_x
 _atom_site_fract_y
 _atom_site_fract_z
 _atom_site_occupancy
  Fe  Fe0  1  0.05935300  0.03404800  0.24738500  1.0
  Fe  Fe1  1  0.55592000  0.21503100  0.99927500  1.0
  Fe  Fe2  1  0.55592000  0.28496900  0.49927500  1.0
  Fe  Fe3  1  0.05935300  0.46595200  0.74738500  1.0
  Fe  Fe4  1  0.94064700  0.53404800  0.24738500  1.0
  Fe  Fe5  1  0.44408000  0.71503100  0.99927500  1.0
  Fe  Fe6  1  0.44408000  0.78496900  0.49927500  1.0
  Fe  Fe7  1  0.94064700  0.96595200  0.74738500  1.0
