# generated using pymatgen
data_Fe
_symmetry_space_group_name_H-M   'P 1'
_cell_length_a   5.84012600
_cell_length_b   10.08007302
_cell_length_c   10.33747900
_cell_angle_alpha   90.00000000
_cell_angle_beta   90.00000000
_cell_angle_gamma   93.29984289
_symmetry_Int_Tables_number   1
_chemical_formula_structural   Fe
_chemical_formula_sum   Fe8
_cell_volume   607.54698023
_cell_formula_units_Z   8
loop_
 _symmetry_equiv_pos_site_id
 _symmetry_equiv_pos_as_xyz
  1  'x, y, z'
loop_
 _atom_site_type_symbol
 _atom_site_label
 _atom_site_symmetry_multiplicity
 _atom_site_fract_x
 _atom_site_fract_y
 _atom_site_fract_z
 _atom_site_occupancy
  Fe  Fe0  1  0.12871200  0.85047700  0.15426800  1.0
  Fe  Fe1  1  0.12871200  0.35047700  0.34573200  1.0
  Fe  Fe2  1  0.37792200  0.63841100  0.66725400  1.0
  Fe  Fe3  1  0.37792200  0.13841100  0.83274600  1.0
  Fe  Fe4  1  0.62207800  0.86158900  0.16725400  1.0
  Fe  Fe5  1  0.62207800  0.36158900  0.33274600  1.0
  Fe  Fe6  1  0.87128800  0.64952300  0.65426800  1.0
  Fe  Fe7  1  0.87128800  0.14952300  0.84573200  1.0
