# generated using pymatgen
data_Fe
_symmetry_space_group_name_H-M   'P 1'
_cell_length_a   5.06139475
_cell_length_b   5.06221418
_cell_length_c   6.29625351
_cell_angle_alpha   89.99762376
_cell_angle_beta   89.99451171
_cell_angle_gamma   68.38844518
_symmetry_Int_Tables_number   1
_chemical_formula_structural   Fe
_chemical_formula_sum   Fe2
_cell_volume   149.98119214
_cell_formula_units_Z   2
loop_
 _symmetry_equiv_pos_site_id
 _symmetry_equiv_pos_as_xyz
  1  'x, y, z'
loop_
 _atom_site_type_symbol
 _atom_site_label
 _atom_site_symmetry_multiplicity
 _atom_site_fract_x
 _atom_site_fract_y
 _atom_site_fract_z
 _atom_site_occupancy
  Fe  Fe0  1  0.18197150  0.18194450  0.25002300  1.0
  Fe  Fe1  1  0.81803200  0.81806200  0.75002000  1.0
