# generated using pymatgen
data_Fe
_symmetry_space_group_name_H-M   'P 1'
_cell_length_a   5.88721700
_cell_length_b   7.70809400
_cell_length_c   13.88989900
_cell_angle_alpha   90.00000000
_cell_angle_beta   90.00000000
_cell_angle_gamma   90.00000000
_symmetry_Int_Tables_number   1
_chemical_formula_structural   Fe
_chemical_formula_sum   Fe8
_cell_volume   630.31281076
_cell_formula_units_Z   8
loop_
 _symmetry_equiv_pos_site_id
 _symmetry_equiv_pos_as_xyz
  1  'x, y, z'
loop_
 _atom_site_type_symbol
 _atom_site_label
 _atom_site_symmetry_multiplicity
 _atom_site_fract_x
 _atom_site_fract_y
 _atom_site_fract_z
 _atom_site_occupancy
  Fe  Fe0  1  0.39763600  0.18200400  0.53557700  1.0
  Fe  Fe1  1  0.89763600  0.18200400  0.96442300  1.0
  Fe  Fe2  1  0.39763600  0.31799600  0.03557700  1.0
  Fe  Fe3  1  0.89763600  0.31799600  0.46442300  1.0
  Fe  Fe4  1  0.10236400  0.68200400  0.53557700  1.0
  Fe  Fe5  1  0.60236400  0.68200400  0.96442300  1.0
  Fe  Fe6  1  0.10236400  0.81799600  0.03557700  1.0
  Fe  Fe7  1  0.60236400  0.81799600  0.46442300  1.0
