# generated using pymatgen
data_Fe
_symmetry_space_group_name_H-M   'P 1'
_cell_length_a   5.23006237
_cell_length_b   7.84570192
_cell_length_c   8.37390656
_cell_angle_alpha   85.15286733
_cell_angle_beta   88.71842647
_cell_angle_gamma   77.55903219
_symmetry_Int_Tables_number   1
_chemical_formula_structural   Fe
_chemical_formula_sum   Fe4
_cell_volume   334.33921794
_cell_formula_units_Z   4
loop_
 _symmetry_equiv_pos_site_id
 _symmetry_equiv_pos_as_xyz
  1  'x, y, z'
loop_
 _atom_site_type_symbol
 _atom_site_label
 _atom_site_symmetry_multiplicity
 _atom_site_fract_x
 _atom_site_fract_y
 _atom_site_fract_z
 _atom_site_occupancy
  Fe  Fe0  1  0.83318900  0.05106400  0.30124200  1.0
  Fe  Fe1  1  0.82076800  0.55477900  0.22426100  1.0
  Fe  Fe2  1  0.17912500  0.44518700  0.77569800  1.0
  Fe  Fe3  1  0.16680600  0.94892700  0.69875400  1.0
