# generated using pymatgen
data_Fe
_symmetry_space_group_name_H-M   'P 1'
_cell_length_a   5.96455450
_cell_length_b   6.66033184
_cell_length_c   9.55617025
_cell_angle_alpha   71.76641061
_cell_angle_beta   82.64108449
_cell_angle_gamma   79.48070732
_symmetry_Int_Tables_number   1
_chemical_formula_structural   Fe
_chemical_formula_sum   Fe4
_cell_volume   353.48115139
_cell_formula_units_Z   4
loop_
 _symmetry_equiv_pos_site_id
 _symmetry_equiv_pos_as_xyz
  1  'x, y, z'
loop_
 _atom_site_type_symbol
 _atom_site_label
 _atom_site_symmetry_multiplicity
 _atom_site_fract_x
 _atom_site_fract_y
 _atom_site_fract_z
 _atom_site_occupancy
  Fe  Fe0  1  0.01382000  0.06648600  0.71616300  1.0
  Fe  Fe1  1  0.79666500  0.64471700  0.06787500  1.0
  Fe  Fe2  1  0.98707400  0.93512800  0.28320700  1.0
  Fe  Fe3  1  0.20436600  0.35391000  0.93348300  1.0
