# generated using pymatgen
data_Fe
_symmetry_space_group_name_H-M   'P 1'
_cell_length_a   5.70060300
_cell_length_b   5.74273151
_cell_length_c   5.74270434
_cell_angle_alpha   89.24763975
_cell_angle_beta   60.24190630
_cell_angle_gamma   60.24215608
_symmetry_Int_Tables_number   1
_chemical_formula_structural   Fe
_chemical_formula_sum   Fe2
_cell_volume   134.73067986
_cell_formula_units_Z   2
loop_
 _symmetry_equiv_pos_site_id
 _symmetry_equiv_pos_as_xyz
  1  'x, y, z'
loop_
 _atom_site_type_symbol
 _atom_site_label
 _atom_site_symmetry_multiplicity
 _atom_site_fract_x
 _atom_site_fract_y
 _atom_site_fract_z
 _atom_site_occupancy
  Fe  Fe0  1  0.00001450  0.49994300  0.99995900  1.0
  Fe  Fe1  1  0.50019300  0.99980950  0.49994550  1.0
