# generated using pymatgen
data_Fe
_symmetry_space_group_name_H-M   'P 1'
_cell_length_a   4.73602706
_cell_length_b   8.08830424
_cell_length_c   8.53583039
_cell_angle_alpha   89.97536304
_cell_angle_beta   90.01066048
_cell_angle_gamma   89.98164706
_symmetry_Int_Tables_number   1
_chemical_formula_structural   Fe
_chemical_formula_sum   Fe4
_cell_volume   326.97711745
_cell_formula_units_Z   4
loop_
 _symmetry_equiv_pos_site_id
 _symmetry_equiv_pos_as_xyz
  1  'x, y, z'
loop_
 _atom_site_type_symbol
 _atom_site_label
 _atom_site_symmetry_multiplicity
 _atom_site_fract_x
 _atom_site_fract_y
 _atom_site_fract_z
 _atom_site_occupancy
  Fe  Fe0  1  0.95965700  0.56474900  0.84390500  1.0
  Fe  Fe1  1  0.45884700  0.93490600  0.34383000  1.0
  Fe  Fe2  1  0.96031000  0.06448200  0.65589500  1.0
  Fe  Fe3  1  0.46096200  0.43540400  0.15570700  1.0
