# generated using pymatgen
data_Fe
_symmetry_space_group_name_H-M   'P 1'
_cell_length_a   5.25135600
_cell_length_b   7.85705000
_cell_length_c   8.81783709
_cell_angle_alpha   98.60867266
_cell_angle_beta   90.00000000
_cell_angle_gamma   90.00000000
_symmetry_Int_Tables_number   1
_chemical_formula_structural   Fe
_chemical_formula_sum   Fe4
_cell_volume   359.72647426
_cell_formula_units_Z   4
loop_
 _symmetry_equiv_pos_site_id
 _symmetry_equiv_pos_as_xyz
  1  'x, y, z'
loop_
 _atom_site_type_symbol
 _atom_site_label
 _atom_site_symmetry_multiplicity
 _atom_site_fract_x
 _atom_site_fract_y
 _atom_site_fract_z
 _atom_site_occupancy
  Fe  Fe0  1  0.96876100  0.19536500  0.58621200  1.0
  Fe  Fe1  1  0.55854300  0.35571500  0.08245900  1.0
  Fe  Fe2  1  0.05854300  0.64428500  0.91754100  1.0
  Fe  Fe3  1  0.46876100  0.80463500  0.41378800  1.0
