# generated using pymatgen
data_Fe
_symmetry_space_group_name_H-M   'P 1'
_cell_length_a   4.24553400
_cell_length_b   6.42865370
_cell_length_c   6.42865370
_cell_angle_alpha   83.74032879
_cell_angle_beta   70.71884366
_cell_angle_gamma   70.71884365
_symmetry_Int_Tables_number   1
_chemical_formula_structural   Fe
_chemical_formula_sum   Fe12
_cell_volume   156.32671214
_cell_formula_units_Z   12
loop_
 _symmetry_equiv_pos_site_id
 _symmetry_equiv_pos_as_xyz
  1  'x, y, z'
loop_
 _atom_site_type_symbol
 _atom_site_label
 _atom_site_symmetry_multiplicity
 _atom_site_fract_x
 _atom_site_fract_y
 _atom_site_fract_z
 _atom_site_occupancy
  Fe  Fe0  1  0.35905200  0.80891100  0.97586800  1.0
  Fe  Fe1  1  0.14383100  0.19108900  0.02413200  1.0
  Fe  Fe2  1  0.83203700  0.02413200  0.80891100  1.0
  Fe  Fe3  1  0.66508000  0.97586800  0.19108900  1.0
  Fe  Fe4  1  0.01319000  0.60935300  0.33321600  1.0
  Fe  Fe5  1  0.95575900  0.39064700  0.66678400  1.0
  Fe  Fe6  1  0.37745700  0.66678400  0.60935300  1.0
  Fe  Fe7  1  0.65359400  0.33321600  0.39064700  1.0
  Fe  Fe8  1  0.96166100  0.60744300  0.95668900  1.0
  Fe  Fe9  1  0.52579200  0.39255700  0.04331200  1.0
  Fe  Fe10  1  0.43089600  0.04331100  0.60744400  1.0
  Fe  Fe11  1  0.08165000  0.95668900  0.39255700  1.0
