# generated using pymatgen
data_Mn
_symmetry_space_group_name_H-M   'P 1'
_cell_length_a   5.36294916
_cell_length_b   5.51920180
_cell_length_c   7.93942746
_cell_angle_alpha   90.06096287
_cell_angle_beta   90.29937974
_cell_angle_gamma   89.99058991
_symmetry_Int_Tables_number   1
_chemical_formula_structural   Mn
_chemical_formula_sum   Mn6
_cell_volume   234.99734661
_cell_formula_units_Z   6
loop_
 _symmetry_equiv_pos_site_id
 _symmetry_equiv_pos_as_xyz
  1  'x, y, z'
loop_
 _atom_site_type_symbol
 _atom_site_label
 _atom_site_symmetry_multiplicity
 _atom_site_fract_x
 _atom_site_fract_y
 _atom_site_fract_z
 _atom_site_occupancy
  Mn  Mn0  1  0.00003500  0.99959900  0.50084200  1.0
  Mn  Mn1  1  0.49941200  0.50003400  0.99837300  1.0
  Mn  Mn2  1  0.98824600  0.45196900  0.26040300  1.0
  Mn  Mn3  1  0.01235700  0.54701500  0.73844300  1.0
  Mn  Mn4  1  0.48723100  0.04711500  0.76139700  1.0
  Mn  Mn5  1  0.51247700  0.95276700  0.23866200  1.0
