# generated using pymatgen
data_Mn
_symmetry_space_group_name_H-M   'P 1'
_cell_length_a   5.42591029
_cell_length_b   5.42813659
_cell_length_c   5.69813861
_cell_angle_alpha   90.05128936
_cell_angle_beta   118.40037063
_cell_angle_gamma   119.97644584
_symmetry_Int_Tables_number   1
_chemical_formula_structural   Mn
_chemical_formula_sum   Mn3
_cell_volume   121.45072350
_cell_formula_units_Z   3
loop_
 _symmetry_equiv_pos_site_id
 _symmetry_equiv_pos_as_xyz
  1  'x, y, z'
loop_
 _atom_site_type_symbol
 _atom_site_label
 _atom_site_symmetry_multiplicity
 _atom_site_fract_x
 _atom_site_fract_y
 _atom_site_fract_z
 _atom_site_occupancy
  Mn  Mn0  1  0.26583750  0.63290750  0.89874800  1.0
  Mn  Mn1  1  0.28175700  0.14088950  0.42246600  1.0
  Mn  Mn2  1  0.71616450  0.35781200  0.07392700  1.0
