# generated using pymatgen
data_Ti
_symmetry_space_group_name_H-M   'P 1'
_cell_length_a   10.42797579
_cell_length_b   10.79911324
_cell_length_c   10.72396831
_cell_angle_alpha   90.14973325
_cell_angle_beta   90.05656324
_cell_angle_gamma   86.45157374
_symmetry_Int_Tables_number   1
_chemical_formula_structural   Ti
_chemical_formula_sum   Ti50
_cell_volume   1205.33728347
_cell_formula_units_Z   50
loop_
 _symmetry_equiv_pos_site_id
 _symmetry_equiv_pos_as_xyz
  1  'x, y, z'
loop_
 _atom_site_type_symbol
 _atom_site_label
 _atom_site_symmetry_multiplicity
 _atom_site_fract_x
 _atom_site_fract_y
 _atom_site_fract_z
 _atom_site_occupancy
  Ti  Ti0  1  0.88909256  0.36350941  0.88374682  1.0
  Ti  Ti1  1  0.14039639  0.37187945  0.47840897  1.0
  Ti  Ti2  1  0.64415778  0.22190766  0.45222188  1.0
  Ti  Ti3  1  0.97865988  0.92354305  0.98817122  1.0
  Ti  Ti4  1  0.18351013  0.78376475  0.83830568  1.0
  Ti  Ti5  1  0.46133211  0.55737806  0.06832899  1.0
  Ti  Ti6  1  0.60286378  0.38354765  0.90851587  1.0
  Ti  Ti7  1  0.94908711  0.81500972  0.63751680  1.0
  Ti  Ti8  1  0.00923550  0.02548629  0.74866026  1.0
  Ti  Ti9  1  0.44080729  0.55453068  0.46580537  1.0
  Ti  Ti10  1  0.04124261  0.43106405  0.21023030  1.0
  Ti  Ti11  1  0.81261352  0.40308486  0.41335132  1.0
  Ti  Ti12  1  0.96772330  0.15692035  0.17887007  1.0
  Ti  Ti13  1  0.14307517  0.92643053  0.50650208  1.0
  Ti  Ti14  1  0.75245706  0.59924154  0.85888220  1.0
  Ti  Ti15  1  0.57237583  0.70073563  0.30529957  1.0
  Ti  Ti16  1  0.31785677  0.16245482  0.59820815  1.0
  Ti  Ti17  1  0.24430439  0.37604616  0.03842863  1.0
  Ti  Ti18  1  0.31578083  0.78147274  0.07503885  1.0
  Ti  Ti19  1  0.30741758  0.76761136  0.33030901  1.0
  Ti  Ti20  1  0.57331234  0.18435724  0.70713523  1.0
  Ti  Ti21  1  0.48926419  0.75573397  0.86026371  1.0
  Ti  Ti22  1  0.75763047  0.32597243  0.12059399  1.0
  Ti  Ti23  1  0.39349768  0.98528345  0.40776298  1.0
  Ti  Ti24  1  0.07051410  0.72222420  0.19853237  1.0
  Ti  Ti25  1  0.51898430  0.39773715  0.27308865  1.0
  Ti  Ti26  1  0.71536039  0.13445289  0.94680274  1.0
  Ti  Ti27  1  0.79411665  0.62186905  0.15876065  1.0
  Ti  Ti28  1  0.11831051  0.57774616  0.97849247  1.0
  Ti  Ti29  1  0.90313544  0.49879458  0.63698533  1.0
  Ti  Ti30  1  0.13478224  0.43179531  0.76622367  1.0
  Ti  Ti31  1  0.63274405  0.45130834  0.63283447  1.0
  Ti  Ti32  1  0.25582256  0.53095221  0.27576923  1.0
  Ti  Ti33  1  0.17886574  0.99172442  0.24521638  1.0
  Ti  Ti34  1  0.60702460  0.83303084  0.07980349  1.0
  Ti  Ti35  1  0.78008992  0.66912918  0.47073650  1.0
  Ti  Ti36  1  0.68374350  0.08888041  0.20943178  1.0
  Ti  Ti37  1  0.72871813  0.96208083  0.72856259  1.0
  Ti  Ti38  1  0.30513298  0.97993342  0.76675665  1.0
  Ti  Ti39  1  0.35406562  0.25923735  0.84006618  1.0
  Ti  Ti40  1  0.69128513  0.94754285  0.43740714  1.0
  Ti  Ti41  1  0.37536615  0.52994654  0.82070507  1.0
  Ti  Ti42  1  0.29209274  0.69879886  0.62629029  1.0
  Ti  Ti43  1  0.09975308  0.18256070  0.95164048  1.0
  Ti  Ti44  1  0.06110791  0.63489561  0.45157803  1.0
  Ti  Ti45  1  0.92784162  0.13515093  0.47007088  1.0
  Ti  Ti46  1  0.83545494  0.85165862  0.24495679  1.0
  Ti  Ti47  1  0.38448216  0.22522373  0.37387536  1.0
  Ti  Ti48  1  0.50212387  0.81811980  0.58769787  1.0
  Ti  Ti49  1  0.83445412  0.25239094  0.67167080  1.0
