# generated using pymatgen
data_Ti
_symmetry_space_group_name_H-M   'P 1'
_cell_length_a   10.42649126
_cell_length_b   10.67691311
_cell_length_c   10.75088038
_cell_angle_alpha   91.88886872
_cell_angle_beta   90.57623441
_cell_angle_gamma   90.65292139
_symmetry_Int_Tables_number   1
_chemical_formula_structural   Ti
_chemical_formula_sum   Ti50
_cell_volume   1196.02433134
_cell_formula_units_Z   50
loop_
 _symmetry_equiv_pos_site_id
 _symmetry_equiv_pos_as_xyz
  1  'x, y, z'
loop_
 _atom_site_type_symbol
 _atom_site_label
 _atom_site_symmetry_multiplicity
 _atom_site_fract_x
 _atom_site_fract_y
 _atom_site_fract_z
 _atom_site_occupancy
  Ti  Ti0  1  0.74839606  0.00927997  0.48708683  1.0
  Ti  Ti1  1  0.42202606  0.13381270  0.69374000  1.0
  Ti  Ti2  1  0.32967991  0.26503877  0.07026432  1.0
  Ti  Ti3  1  0.35610114  0.58865633  0.11038249  1.0
  Ti  Ti4  1  0.56128230  0.13604811  0.18071063  1.0
  Ti  Ti5  1  0.37876976  0.91161832  0.10867482  1.0
  Ti  Ti6  1  0.43060103  0.91724937  0.81013542  1.0
  Ti  Ti7  1  0.83110533  0.12077132  0.24662221  1.0
  Ti  Ti8  1  0.98947044  0.42841432  0.64596385  1.0
  Ti  Ti9  1  0.91478939  0.11494703  0.88078828  1.0
  Ti  Ti10  1  0.85316678  0.83577905  0.27160280  1.0
  Ti  Ti11  1  0.22697681  0.36439739  0.55885392  1.0
  Ti  Ti12  1  0.69986381  0.32072414  0.74444753  1.0
  Ti  Ti13  1  0.88272830  0.55141907  0.12799718  1.0
  Ti  Ti14  1  0.63887512  0.43887918  0.26434889  1.0
  Ti  Ti15  1  0.07018631  0.64314145  0.45982005  1.0
  Ti  Ti16  1  0.57356550  0.48756496  0.56540885  1.0
  Ti  Ti17  1  0.43216353  0.67411219  0.87151958  1.0
  Ti  Ti18  1  0.67175369  0.03290908  0.72612462  1.0
  Ti  Ti19  1  0.03063072  0.92052264  0.44600103  1.0
  Ti  Ti20  1  0.61375865  0.90199446  0.30013080  1.0
  Ti  Ti21  1  0.20347476  0.07498790  0.56589550  1.0
  Ti  Ti22  1  0.42475543  0.39884073  0.80021307  1.0
  Ti  Ti23  1  0.14338664  0.63441184  0.80084464  1.0
  Ti  Ti24  1  0.19787592  0.83892745  0.64430478  1.0
  Ti  Ti25  1  0.95051441  0.13290875  0.60587166  1.0
  Ti  Ti26  1  0.62481326  0.73365548  0.12894169  1.0
  Ti  Ti27  1  0.06370465  0.15869676  0.35222106  1.0
  Ti  Ti28  1  0.92015003  0.41389128  0.88487631  1.0
  Ti  Ti29  1  0.53167690  0.15480223  0.91413378  1.0
  Ti  Ti30  1  0.91319274  0.74284826  0.94581164  1.0
  Ti  Ti31  1  0.35948589  0.29916633  0.34733027  1.0
  Ti  Ti32  1  0.11748066  0.43220137  0.24747261  1.0
  Ti  Ti33  1  0.13558890  0.70120628  0.13052423  1.0
  Ti  Ti34  1  0.56545639  0.78042192  0.60143880  1.0
  Ti  Ti35  1  0.73738431  0.26542286  0.02983765  1.0
  Ti  Ti36  1  0.33045271  0.60825715  0.63089500  1.0
  Ti  Ti37  1  0.56011165  0.46735708  0.00291072  1.0
  Ti  Ti38  1  0.71474570  0.59437349  0.79258952  1.0
  Ti  Ti39  1  0.78697347  0.62369859  0.43991461  1.0
  Ti  Ti40  1  0.35533496  0.57008880  0.37989262  1.0
  Ti  Ti41  1  0.11880051  0.91876444  0.96579370  1.0
  Ti  Ti42  1  0.91692142  0.84819350  0.66019073  1.0
  Ti  Ti43  1  0.26481895  0.85410994  0.37424542  1.0
  Ti  Ti44  1  0.04871699  0.23932760  0.07480671  1.0
  Ti  Ti45  1  0.16238175  0.23375573  0.82135863  1.0
  Ti  Ti46  1  0.17168042  0.45847846  0.97224937  1.0
  Ti  Ti47  1  0.46238209  0.03454563  0.46314515  1.0
  Ti  Ti48  1  0.73505293  0.98137837  0.03264562  1.0
  Ti  Ti49  1  0.67663163  0.23095476  0.43290164  1.0
