# generated using pymatgen
data_Ti
_symmetry_space_group_name_H-M   'P 1'
_cell_length_a   10.24863701
_cell_length_b   10.66753474
_cell_length_c   10.89470718
_cell_angle_alpha   88.59175004
_cell_angle_beta   89.62525681
_cell_angle_gamma   88.99343920
_symmetry_Int_Tables_number   1
_chemical_formula_structural   Ti
_chemical_formula_sum   Ti50
_cell_volume   1190.52745179
_cell_formula_units_Z   50
loop_
 _symmetry_equiv_pos_site_id
 _symmetry_equiv_pos_as_xyz
  1  'x, y, z'
loop_
 _atom_site_type_symbol
 _atom_site_label
 _atom_site_symmetry_multiplicity
 _atom_site_fract_x
 _atom_site_fract_y
 _atom_site_fract_z
 _atom_site_occupancy
  Ti  Ti0  1  0.35761289  0.33917632  0.82851582  1.0
  Ti  Ti1  1  0.87819447  0.58209153  0.63257124  1.0
  Ti  Ti2  1  0.04349795  0.52803926  0.82376919  1.0
  Ti  Ti3  1  0.98146682  0.83254520  0.19174286  1.0
  Ti  Ti4  1  0.14762434  0.36736293  0.00890054  1.0
  Ti  Ti5  1  0.99897308  0.57726907  0.08218012  1.0
  Ti  Ti6  1  0.77447032  0.72509257  0.03472733  1.0
  Ti  Ti7  1  0.27140033  0.18524516  0.60692511  1.0
  Ti  Ti8  1  0.80309788  0.11306391  0.65330258  1.0
  Ti  Ti9  1  0.03510828  0.25523580  0.75180534  1.0
  Ti  Ti10  1  0.10240699  0.10858404  0.14162416  1.0
  Ti  Ti11  1  0.64528594  0.53984503  0.87631339  1.0
  Ti  Ti12  1  0.72790922  0.36370928  0.71342028  1.0
  Ti  Ti13  1  0.05684586  0.01122574  0.67543415  1.0
  Ti  Ti14  1  0.48571638  0.34929972  0.60378276  1.0
  Ti  Ti15  1  0.48930736  0.03243778  0.22641137  1.0
  Ti  Ti16  1  0.65882401  0.53964139  0.50278942  1.0
  Ti  Ti17  1  0.70581556  0.51969596  0.14943285  1.0
  Ti  Ti18  1  0.65164819  0.25398456  0.13722743  1.0
  Ti  Ti19  1  0.36379348  0.15401453  0.04305915  1.0
  Ti  Ti20  1  0.29841033  0.22151163  0.31788795  1.0
  Ti  Ti21  1  0.53915141  0.77774503  0.96517814  1.0
  Ti  Ti22  1  0.61931342  0.74239460  0.31073758  1.0
  Ti  Ti23  1  0.76721613  0.99412015  0.16884928  1.0
  Ti  Ti24  1  0.88082232  0.07472537  0.91610153  1.0
  Ti  Ti25  1  0.59603739  0.04685583  0.95805527  1.0
  Ti  Ti26  1  0.90568111  0.58665704  0.34256608  1.0
  Ti  Ti27  1  0.24795950  0.05284268  0.85234300  1.0
  Ti  Ti28  1  0.94040328  0.85856049  0.45047073  1.0
  Ti  Ti29  1  0.86698088  0.36460363  0.97268990  1.0
  Ti  Ti30  1  0.93773888  0.33627448  0.23077506  1.0
  Ti  Ti31  1  0.27922671  0.68138692  0.85463798  1.0
  Ti  Ti32  1  0.49996468  0.68452929  0.65368089  1.0
  Ti  Ti33  1  0.24581580  0.98374357  0.37293965  1.0
  Ti  Ti34  1  0.38075909  0.37891356  0.13788261  1.0
  Ti  Ti35  1  0.93636769  0.36955587  0.51882373  1.0
  Ti  Ti36  1  0.54127226  0.91693240  0.47721316  1.0
  Ti  Ti37  1  0.23081216  0.44783362  0.57859502  1.0
  Ti  Ti38  1  0.91860759  0.12210980  0.39184148  1.0
  Ti  Ti39  1  0.50992606  0.07963385  0.70452057  1.0
  Ti  Ti40  1  0.41869816  0.48927210  0.38056115  1.0
  Ti  Ti41  1  0.04343766  0.80959793  0.85877636  1.0
  Ti  Ti42  1  0.70882471  0.26311664  0.44842663  1.0
  Ti  Ti43  1  0.28661031  0.88679985  0.09094612  1.0
  Ti  Ti44  1  0.11171697  0.73301508  0.62768234  1.0
  Ti  Ti45  1  0.69324456  0.89628156  0.76873547  1.0
  Ti  Ti46  1  0.25930290  0.74282477  0.33533013  1.0
  Ti  Ti47  1  0.40682702  0.62296813  0.15338531  1.0
  Ti  Ti48  1  0.17077018  0.50701700  0.26831368  1.0
  Ti  Ti49  1  0.31573724  0.90740572  0.63761863  1.0
