# generated using pymatgen
data_Ti
_symmetry_space_group_name_H-M   'P 1'
_cell_length_a   10.32712270
_cell_length_b   10.67232099
_cell_length_c   10.85689076
_cell_angle_alpha   81.74976010
_cell_angle_beta   87.65174887
_cell_angle_gamma   85.79985010
_symmetry_Int_Tables_number   1
_chemical_formula_structural   Ti
_chemical_formula_sum   Ti50
_cell_volume   1180.45853337
_cell_formula_units_Z   50
loop_
 _symmetry_equiv_pos_site_id
 _symmetry_equiv_pos_as_xyz
  1  'x, y, z'
loop_
 _atom_site_type_symbol
 _atom_site_label
 _atom_site_symmetry_multiplicity
 _atom_site_fract_x
 _atom_site_fract_y
 _atom_site_fract_z
 _atom_site_occupancy
  Ti  Ti0  1  0.72592036  0.67004601  0.83386241  1.0
  Ti  Ti1  1  0.22328676  0.64638304  0.53841572  1.0
  Ti  Ti2  1  0.10957577  0.39730731  0.66405394  1.0
  Ti  Ti3  1  0.02087197  0.06025744  0.14633687  1.0
  Ti  Ti4  1  0.98921378  0.64917878  0.68816039  1.0
  Ti  Ti5  1  0.69289164  0.48035677  0.07321983  1.0
  Ti  Ti6  1  0.24015964  0.63681700  0.81563336  1.0
  Ti  Ti7  1  0.93681775  0.89823747  0.60109900  1.0
  Ti  Ti8  1  0.14637335  0.95892569  0.94427509  1.0
  Ti  Ti9  1  0.93678557  0.83171385  0.86579510  1.0
  Ti  Ti10  1  0.70302121  0.93204532  0.31630423  1.0
  Ti  Ti11  1  0.18904335  0.67864137  0.06463225  1.0
  Ti  Ti12  1  0.17651387  0.87540346  0.68672478  1.0
  Ti  Ti13  1  0.19285153  0.44419629  0.38716716  1.0
  Ti  Ti14  1  0.56441770  0.58443022  0.53969192  1.0
  Ti  Ti15  1  0.52666262  0.92422164  0.13402425  1.0
  Ti  Ti16  1  0.27481330  0.13257851  0.77158457  1.0
  Ti  Ti17  1  0.16041291  0.39599992  0.13509700  1.0
  Ti  Ti18  1  0.33518570  0.65221143  0.29212909  1.0
  Ti  Ti19  1  0.79533737  0.73856225  0.07482678  1.0
  Ti  Ti20  1  0.67998016  0.84640019  0.57511750  1.0
  Ti  Ti21  1  0.52828489  0.51641679  0.81379790  1.0
  Ti  Ti22  1  0.50525256  0.15378010  0.25835756  1.0
  Ti  Ti23  1  0.44804705  0.90472941  0.40801164  1.0
  Ti  Ti24  1  0.22991008  0.89405083  0.20425725  1.0
  Ti  Ti25  1  0.28528381  0.14519591  0.02905141  1.0
  Ti  Ti26  1  0.23233420  0.14635818  0.27252128  1.0
  Ti  Ti27  1  0.52072182  0.97259189  0.87826454  1.0
  Ti  Ti28  1  0.98047402  0.31278050  0.43476137  1.0
  Ti  Ti29  1  0.91200355  0.51360274  0.52719218  1.0
  Ti  Ti30  1  0.98243752  0.54063756  0.95821928  1.0
  Ti  Ti31  1  0.84148380  0.38055035  0.77975456  1.0
  Ti  Ti32  1  0.35149354  0.40300935  0.95250056  1.0
  Ti  Ti33  1  0.96185743  0.07566282  0.41637620  1.0
  Ti  Ti34  1  0.47198472  0.72097935  0.97431253  1.0
  Ti  Ti35  1  0.99134922  0.82998767  0.34562841  1.0
  Ti  Ti36  1  0.49455394  0.07540689  0.58359491  1.0
  Ti  Ti37  1  0.52367539  0.26803335  0.75784138  1.0
  Ti  Ti38  1  0.22274390  0.14545252  0.52528740  1.0
  Ti  Ti39  1  0.45991051  0.81352918  0.71788345  1.0
  Ti  Ti40  1  0.68412073  0.39541824  0.37530323  1.0
  Ti  Ti41  1  0.02932918  0.22886879  0.93328175  1.0
  Ti  Ti42  1  0.42992528  0.37705851  0.50470054  1.0
  Ti  Ti43  1  0.78184115  0.06645213  0.96671593  1.0
  Ti  Ti44  1  0.98500851  0.61068699  0.21302093  1.0
  Ti  Ti45  1  0.01354746  0.14115099  0.68743497  1.0
  Ti  Ti46  1  0.77212180  0.17931119  0.21504731  1.0
  Ti  Ti47  1  0.46702606  0.41831370  0.19657619  1.0
  Ti  Ti48  1  0.76031988  0.69203030  0.33826702  1.0
  Ti  Ti49  1  0.75016628  0.08946232  0.70437943  1.0
