# generated using pymatgen
data_Ti
_symmetry_space_group_name_H-M   'P 1'
_cell_length_a   2.82132200
_cell_length_b   2.82132200
_cell_length_c   17.64098645
_cell_angle_alpha   94.58655237
_cell_angle_beta   94.58655237
_cell_angle_gamma   90.00000003
_symmetry_Int_Tables_number   1
_chemical_formula_structural   Ti
_chemical_formula_sum   Ti6
_cell_volume   139.51895528
_cell_formula_units_Z   6
loop_
 _symmetry_equiv_pos_site_id
 _symmetry_equiv_pos_as_xyz
  1  'x, y, z'
loop_
 _atom_site_type_symbol
 _atom_site_label
 _atom_site_symmetry_multiplicity
 _atom_site_fract_x
 _atom_site_fract_y
 _atom_site_fract_z
 _atom_site_occupancy
  Ti  Ti0  1  0.57049700  0.57049700  0.14099400  1.0
  Ti  Ti1  1  0.13652300  0.13652300  0.27304600  1.0
  Ti  Ti2  1  0.28177800  0.28177800  0.56355600  1.0
  Ti  Ti3  1  0.71822200  0.71822200  0.43644400  1.0
  Ti  Ti4  1  0.86347700  0.86347700  0.72695400  1.0
  Ti  Ti5  1  0.42950300  0.42950300  0.85900600  1.0
