# generated using pymatgen
data_Ti
_symmetry_space_group_name_H-M   'P 1'
_cell_length_a   10.38745635
_cell_length_b   10.60244838
_cell_length_c   11.08431529
_cell_angle_alpha   87.64343894
_cell_angle_beta   89.76971765
_cell_angle_gamma   89.96446084
_symmetry_Int_Tables_number   1
_chemical_formula_structural   Ti
_chemical_formula_sum   Ti50
_cell_volume   1219.70064715
_cell_formula_units_Z   50
loop_
 _symmetry_equiv_pos_site_id
 _symmetry_equiv_pos_as_xyz
  1  'x, y, z'
loop_
 _atom_site_type_symbol
 _atom_site_label
 _atom_site_symmetry_multiplicity
 _atom_site_fract_x
 _atom_site_fract_y
 _atom_site_fract_z
 _atom_site_occupancy
  Ti  Ti0  1  0.38608212  0.31552483  0.82191461  1.0
  Ti  Ti1  1  0.53429646  0.95483043  0.63998330  1.0
  Ti  Ti2  1  0.29624091  0.10272399  0.69312149  1.0
  Ti  Ti3  1  0.94741181  0.90196012  0.93139231  1.0
  Ti  Ti4  1  0.68772985  0.86832751  0.86106190  1.0
  Ti  Ti5  1  0.56862429  0.37548652  0.98553874  1.0
  Ti  Ti6  1  0.17350200  0.62512279  0.90305091  1.0
  Ti  Ti7  1  0.93300907  0.17417154  0.82327429  1.0
  Ti  Ti8  1  0.89540523  0.92970507  0.67324740  1.0
  Ti  Ti9  1  0.72262157  0.17024244  0.24942834  1.0
  Ti  Ti10  1  0.03677034  0.94858898  0.20676072  1.0
  Ti  Ti11  1  0.62049701  0.87980932  0.13224843  1.0
  Ti  Ti12  1  0.81243804  0.92769496  0.34130282  1.0
  Ti  Ti13  1  0.06183698  0.86749912  0.45931400  1.0
  Ti  Ti14  1  0.72624357  0.38211180  0.76722755  1.0
  Ti  Ti15  1  0.90444661  0.33770485  0.34082953  1.0
  Ti  Ti16  1  0.38179849  0.75185677  0.58091592  1.0
  Ti  Ti17  1  0.25934627  0.84569887  0.03545518  1.0
  Ti  Ti18  1  0.84186742  0.63649879  0.34796837  1.0
  Ti  Ti19  1  0.72785475  0.49657201  0.16241231  1.0
  Ti  Ti20  1  0.24225515  0.52109425  0.68350378  1.0
  Ti  Ti21  1  0.45859111  0.71461332  0.80897368  1.0
  Ti  Ti22  1  0.24457601  0.10743308  0.18481669  1.0
  Ti  Ti23  1  0.96907940  0.46512290  0.64171722  1.0
  Ti  Ti24  1  0.87431989  0.72985239  0.12898818  1.0
  Ti  Ti25  1  0.37382480  0.38400813  0.18910465  1.0
  Ti  Ti26  1  0.08521062  0.44303395  0.17875723  1.0
  Ti  Ti27  1  0.70403930  0.16551724  0.95977982  1.0
  Ti  Ti28  1  0.34472923  0.85769893  0.28294161  1.0
  Ti  Ti29  1  0.55105155  0.26213876  0.48897831  1.0
  Ti  Ti30  1  0.43853169  0.04646293  0.89800732  1.0
  Ti  Ti31  1  0.49376020  0.48732830  0.63216467  1.0
  Ti  Ti32  1  0.42309162  0.65159325  0.13625097  1.0
  Ti  Ti33  1  0.13077226  0.70767712  0.22241652  1.0
  Ti  Ti34  1  0.90033687  0.41284790  0.96973403  1.0
  Ti  Ti35  1  0.80336067  0.14988435  0.50566162  1.0
  Ti  Ti36  1  0.12807391  0.54698203  0.44421074  1.0
  Ti  Ti37  1  0.19635300  0.34982796  0.99659645  1.0
  Ti  Ti38  1  0.66492176  0.70345408  0.63393583  1.0
  Ti  Ti39  1  0.83368793  0.64225985  0.85204562  1.0
  Ti  Ti40  1  0.30048015  0.32499164  0.51620277  1.0
  Ti  Ti41  1  0.14073554  0.84780809  0.77811949  1.0
  Ti  Ti42  1  0.59559502  0.75210162  0.36801251  1.0
  Ti  Ti43  1  0.17141199  0.10398774  0.92397817  1.0
  Ti  Ti44  1  0.56089543  0.01449392  0.37349787  1.0
  Ti  Ti45  1  0.27276866  0.04276519  0.46211803  1.0
  Ti  Ti46  1  0.94599155  0.19114139  0.09709269  1.0
  Ti  Ti47  1  0.47285667  0.51916717  0.39003377  1.0
  Ti  Ti48  1  0.74950575  0.46135864  0.49960495  1.0
  Ti  Ti49  1  0.07819569  0.19904615  0.58423076  1.0
