# generated using pymatgen
data_CrCu
_symmetry_space_group_name_H-M   'P 1'
_cell_length_a   3.04944712
_cell_length_b   3.04945459
_cell_length_c   11.46137900
_cell_angle_alpha   90.00003062
_cell_angle_beta   90.00000317
_cell_angle_gamma   119.99993182
_symmetry_Int_Tables_number   1
_chemical_formula_structural   CrCu
_chemical_formula_sum   'Cr2 Cu2'
_cell_volume   92.30199372
_cell_formula_units_Z   2
loop_
 _symmetry_equiv_pos_site_id
 _symmetry_equiv_pos_as_xyz
  1  'x, y, z'
loop_
 _atom_site_type_symbol
 _atom_site_label
 _atom_site_symmetry_multiplicity
 _atom_site_fract_x
 _atom_site_fract_y
 _atom_site_fract_z
 _atom_site_occupancy
  Cr  Cr0  1  0.00000700  0.00000300  0.49999800  1.0
  Cr  Cr1  1  0.99999800  1.00000000  0.00000000  1.0
  Cu  Cu2  1  0.66666667  0.33333333  0.25000000  1.0
  Cu  Cu3  1  0.33333333  0.66666667  0.74999900  1.0
