# generated using pymatgen
data_Ti
_symmetry_space_group_name_H-M   'P 1'
_cell_length_a   3.91266227
_cell_length_b   8.20428566
_cell_length_c   8.90508019
_cell_angle_alpha   90.10062742
_cell_angle_beta   90.00000000
_cell_angle_gamma   90.00000000
_symmetry_Int_Tables_number   1
_chemical_formula_structural   Ti
_chemical_formula_sum   Ti8
_cell_volume   285.85796697
_cell_formula_units_Z   8
loop_
 _symmetry_equiv_pos_site_id
 _symmetry_equiv_pos_as_xyz
  1  'x, y, z'
loop_
 _atom_site_type_symbol
 _atom_site_label
 _atom_site_symmetry_multiplicity
 _atom_site_fract_x
 _atom_site_fract_y
 _atom_site_fract_z
 _atom_site_occupancy
  Ti  Ti0  1  0.50000200  0.72957928  0.00470624  1.0
  Ti  Ti1  1  0.00000000  0.72841310  0.74197616  1.0
  Ti  Ti2  1  0.00000000  0.26307463  0.73855013  1.0
  Ti  Ti3  1  0.00000000  0.48684188  0.51070395  1.0
  Ti  Ti4  1  0.00000000  0.02141714  0.50772732  1.0
  Ti  Ti5  1  0.50000200  0.02041509  0.24494614  1.0
  Ti  Ti6  1  0.50000200  0.48691946  0.24490477  1.0
  Ti  Ti7  1  0.50000200  0.26353198  0.00422332  1.0
