# generated using pymatgen
data_Ti
_symmetry_space_group_name_H-M   'P 1'
_cell_length_a   5.94241000
_cell_length_b   5.96024085
_cell_length_c   5.96024085
_cell_angle_alpha   60.41730682
_cell_angle_beta   60.09891314
_cell_angle_gamma   60.09891315
_symmetry_Int_Tables_number   1
_chemical_formula_structural   Ti
_chemical_formula_sum   Ti4
_cell_volume   149.96089217
_cell_formula_units_Z   4
loop_
 _symmetry_equiv_pos_site_id
 _symmetry_equiv_pos_as_xyz
  1  'x, y, z'
loop_
 _atom_site_type_symbol
 _atom_site_label
 _atom_site_symmetry_multiplicity
 _atom_site_fract_x
 _atom_site_fract_y
 _atom_site_fract_z
 _atom_site_occupancy
  Ti  Ti0  1  0.00000000  0.50000000  0.50000000  1.0
  Ti  Ti1  1  0.00000000  0.00000000  0.00000000  1.0
  Ti  Ti2  1  0.00000000  0.50000000  1.00000000  1.0
  Ti  Ti3  1  0.50000000  0.50000000  0.00000000  1.0
