# generated using pymatgen
data_Ti
_symmetry_space_group_name_H-M   'P 1'
_cell_length_a   5.93802400
_cell_length_b   5.93802345
_cell_length_c   9.63637900
_cell_angle_alpha   90.00000000
_cell_angle_beta   90.00000000
_cell_angle_gamma   120.00000305
_symmetry_Int_Tables_number   1
_chemical_formula_structural   Ti
_chemical_formula_sum   Ti8
_cell_volume   294.25804658
_cell_formula_units_Z   8
loop_
 _symmetry_equiv_pos_site_id
 _symmetry_equiv_pos_as_xyz
  1  'x, y, z'
loop_
 _atom_site_type_symbol
 _atom_site_label
 _atom_site_symmetry_multiplicity
 _atom_site_fract_x
 _atom_site_fract_y
 _atom_site_fract_z
 _atom_site_occupancy
  Ti  Ti0  1  0.82911600  0.65823200  0.78453500  1.0
  Ti  Ti1  1  0.34176700  0.17088300  0.78453500  1.0
  Ti  Ti2  1  0.65823300  0.82911700  0.28453500  1.0
  Ti  Ti3  1  0.17088400  0.34176800  0.28453500  1.0
  Ti  Ti4  1  0.66666667  0.33333333  0.51111900  1.0
  Ti  Ti5  1  0.82911600  0.17088300  0.78453500  1.0
  Ti  Ti6  1  0.33333333  0.66666667  0.01111900  1.0
  Ti  Ti7  1  0.17088400  0.82911700  0.28453500  1.0
