# generated using pymatgen
data_Ti
_symmetry_space_group_name_H-M   'P 1'
_cell_length_a   3.94022200
_cell_length_b   8.15514800
_cell_length_c   8.89467900
_cell_angle_alpha   90.00000000
_cell_angle_beta   90.00000000
_cell_angle_gamma   90.00000000
_symmetry_Int_Tables_number   1
_chemical_formula_structural   Ti
_chemical_formula_sum   Ti8
_cell_volume   285.81355252
_cell_formula_units_Z   8
loop_
 _symmetry_equiv_pos_site_id
 _symmetry_equiv_pos_as_xyz
  1  'x, y, z'
loop_
 _atom_site_type_symbol
 _atom_site_label
 _atom_site_symmetry_multiplicity
 _atom_site_fract_x
 _atom_site_fract_y
 _atom_site_fract_z
 _atom_site_occupancy
  Ti  Ti0  1  0.00000000  0.64594500  0.50061400  1.0
  Ti  Ti1  1  0.00000000  0.11682400  0.50570300  1.0
  Ti  Ti2  1  0.50000000  0.35405500  0.00061400  1.0
  Ti  Ti3  1  0.50000000  0.88317600  0.00570300  1.0
  Ti  Ti4  1  0.50000000  0.64190700  0.24628200  1.0
  Ti  Ti5  1  0.50000000  0.11191700  0.24502700  1.0
  Ti  Ti6  1  0.00000000  0.35809300  0.74628200  1.0
  Ti  Ti7  1  0.00000000  0.88808300  0.74502700  1.0
