# generated using pymatgen
data_Ti
_symmetry_space_group_name_H-M   'P 1'
_cell_length_a   3.85105100
_cell_length_b   8.24631700
_cell_length_c   9.05297884
_cell_angle_alpha   89.96343137
_cell_angle_beta   90.00000000
_cell_angle_gamma   90.00000000
_symmetry_Int_Tables_number   1
_chemical_formula_structural   Ti
_chemical_formula_sum   Ti8
_cell_volume   287.49527576
_cell_formula_units_Z   8
loop_
 _symmetry_equiv_pos_site_id
 _symmetry_equiv_pos_as_xyz
  1  'x, y, z'
loop_
 _atom_site_type_symbol
 _atom_site_label
 _atom_site_symmetry_multiplicity
 _atom_site_fract_x
 _atom_site_fract_y
 _atom_site_fract_z
 _atom_site_occupancy
  Ti  Ti0  1  0.25000000  0.77566000  0.13024300  1.0
  Ti  Ti1  1  0.25000000  0.23818200  0.14185500  1.0
  Ti  Ti2  1  0.25000000  0.48705600  0.35986600  1.0
  Ti  Ti3  1  0.25000000  0.00989000  0.36297100  1.0
  Ti  Ti4  1  0.75000000  0.99011000  0.63702900  1.0
  Ti  Ti5  1  0.75000000  0.51294400  0.64013400  1.0
  Ti  Ti6  1  0.75000000  0.76181800  0.85814500  1.0
  Ti  Ti7  1  0.75000000  0.22434000  0.86975700  1.0
