# generated using pymatgen
data_Ti
_symmetry_space_group_name_H-M   'P 1'
_cell_length_a   8.90499300
_cell_length_b   8.93574910
_cell_length_c   10.45198483
_cell_angle_alpha   89.77457267
_cell_angle_beta   89.93083601
_cell_angle_gamma   60.13050110
_symmetry_Int_Tables_number   1
_chemical_formula_structural   Ti
_chemical_formula_sum   Ti18
_cell_volume   721.20715948
_cell_formula_units_Z   18
loop_
 _symmetry_equiv_pos_site_id
 _symmetry_equiv_pos_as_xyz
  1  'x, y, z'
loop_
 _atom_site_type_symbol
 _atom_site_label
 _atom_site_symmetry_multiplicity
 _atom_site_fract_x
 _atom_site_fract_y
 _atom_site_fract_z
 _atom_site_occupancy
  Ti  Ti0  1  0.33518700  0.66545100  0.00723000  1.0
  Ti  Ti1  1  0.33457900  0.49894300  0.48839000  1.0
  Ti  Ti2  1  0.99365100  0.83278100  0.51266000  1.0
  Ti  Ti3  1  0.66403100  0.16717500  0.51223900  1.0
  Ti  Ti4  1  0.99906200  0.66796300  0.98249300  1.0
  Ti  Ti5  1  0.67220700  0.00069200  0.00884700  1.0
  Ti  Ti6  1  0.33824700  0.33509400  0.00250700  1.0
  Ti  Ti7  1  0.66637300  0.83214600  0.49445100  1.0
  Ti  Ti8  1  0.00047100  0.49906000  0.49721500  1.0
  Ti  Ti9  1  0.33360000  0.16460600  0.50674800  1.0
  Ti  Ti10  1  0.66074800  0.67337500  0.99433700  1.0
  Ti  Ti11  1  0.33696800  0.99734000  0.99651100  1.0
  Ti  Ti12  1  0.00640900  0.32992600  0.00569700  1.0
  Ti  Ti13  1  0.34099000  0.83290700  0.48856700  1.0
  Ti  Ti14  1  0.00615300  0.16431500  0.49727200  1.0
  Ti  Ti15  1  0.66733100  0.50078700  0.50291900  1.0
  Ti  Ti16  1  0.99854800  0.00370600  0.00674400  1.0
  Ti  Ti17  1  0.66061000  0.33488700  0.00509200  1.0
