# generated using pymatgen
data_Ti
_symmetry_space_group_name_H-M   'P 1'
_cell_length_a   7.86625600
_cell_length_b   7.88679124
_cell_length_c   10.65016437
_cell_angle_alpha   80.83732877
_cell_angle_beta   87.27113964
_cell_angle_gamma   60.12707897
_symmetry_Int_Tables_number   1
_chemical_formula_structural   Ti
_chemical_formula_sum   Ti14
_cell_volume   565.24260315
_cell_formula_units_Z   14
loop_
 _symmetry_equiv_pos_site_id
 _symmetry_equiv_pos_as_xyz
  1  'x, y, z'
loop_
 _atom_site_type_symbol
 _atom_site_label
 _atom_site_symmetry_multiplicity
 _atom_site_fract_x
 _atom_site_fract_y
 _atom_site_fract_z
 _atom_site_occupancy
  Ti  Ti0  1  0.77274300  0.08052200  0.49588600  1.0
  Ti  Ti1  1  0.94467900  0.34957800  0.50369400  1.0
  Ti  Ti2  1  0.64832100  0.78011700  0.50311700  1.0
  Ti  Ti3  1  0.35594700  0.21756300  0.49683700  1.0
  Ti  Ti4  1  0.06987600  0.64369700  0.50425300  1.0
  Ti  Ti5  1  0.49893800  0.50406600  0.50458300  1.0
  Ti  Ti6  1  0.21303700  0.92148100  0.49551800  1.0
  Ti  Ti7  1  0.85321700  0.72021200  0.00465800  1.0
  Ti  Ti8  1  0.58224000  0.13225100  0.00364200  1.0
  Ti  Ti9  1  0.29991300  0.56009400  0.99335200  1.0
  Ti  Ti10  1  0.71123700  0.43672900  0.99221700  1.0
  Ti  Ti11  1  0.41444300  0.85727000  0.00501600  1.0
  Ti  Ti12  1  0.13830000  0.29834500  0.98253100  1.0
  Ti  Ti13  1  0.00948300  0.98975600  0.00846000  1.0
