# generated using pymatgen
data_Ti
_symmetry_space_group_name_H-M   'P 1'
_cell_length_a   3.81329100
_cell_length_b   8.21001000
_cell_length_c   9.16736900
_cell_angle_alpha   90.00000000
_cell_angle_beta   90.00000000
_cell_angle_gamma   90.00000000
_symmetry_Int_Tables_number   1
_chemical_formula_structural   Ti
_chemical_formula_sum   Ti8
_cell_volume   287.00426279
_cell_formula_units_Z   8
loop_
 _symmetry_equiv_pos_site_id
 _symmetry_equiv_pos_as_xyz
  1  'x, y, z'
loop_
 _atom_site_type_symbol
 _atom_site_label
 _atom_site_symmetry_multiplicity
 _atom_site_fract_x
 _atom_site_fract_y
 _atom_site_fract_z
 _atom_site_occupancy
  Ti  Ti0  1  0.00000000  0.88336100  0.39378300  1.0
  Ti  Ti1  1  0.50000000  0.61663900  0.89378300  1.0
  Ti  Ti2  1  0.50000000  0.38336100  0.10621700  1.0
  Ti  Ti3  1  0.00000000  0.11663900  0.60621700  1.0
  Ti  Ti4  1  0.00000000  0.35979600  0.38426900  1.0
  Ti  Ti5  1  0.50000000  0.14020400  0.88426900  1.0
  Ti  Ti6  1  0.50000000  0.85979600  0.11573100  1.0
  Ti  Ti7  1  0.00000000  0.64020400  0.61573100  1.0
