# generated using pymatgen
data_YbCu
_symmetry_space_group_name_H-M   'P 1'
_cell_length_a   4.30272400
_cell_length_b   4.30272462
_cell_length_c   7.05644900
_cell_angle_alpha   90.00000000
_cell_angle_beta   90.00000000
_cell_angle_gamma   119.99999527
_symmetry_Int_Tables_number   1
_chemical_formula_structural   YbCu
_chemical_formula_sum   'Yb2 Cu2'
_cell_volume   113.13680250
_cell_formula_units_Z   2
loop_
 _symmetry_equiv_pos_site_id
 _symmetry_equiv_pos_as_xyz
  1  'x, y, z'
loop_
 _atom_site_type_symbol
 _atom_site_label
 _atom_site_symmetry_multiplicity
 _atom_site_fract_x
 _atom_site_fract_y
 _atom_site_fract_z
 _atom_site_occupancy
  Yb  Yb0  1  0.00000000  0.00000000  0.50000000  1.0
  Yb  Yb1  1  0.00000000  0.00000000  0.00000000  1.0
  Cu  Cu2  1  0.66666667  0.33333333  0.75000000  1.0
  Cu  Cu3  1  0.33333333  0.66666667  0.25000000  1.0
