# generated using pymatgen
data_Tl
_symmetry_space_group_name_H-M   'P 1'
_cell_length_a   7.75384024
_cell_length_b   7.75384024
_cell_length_c   15.89755644
_cell_angle_alpha   82.87836028
_cell_angle_beta   82.87836028
_cell_angle_gamma   89.99214152
_symmetry_Int_Tables_number   1
_chemical_formula_structural   Tl
_chemical_formula_sum   Tl8
_cell_volume   940.99021625
_cell_formula_units_Z   8
loop_
 _symmetry_equiv_pos_site_id
 _symmetry_equiv_pos_as_xyz
  1  'x, y, z'
loop_
 _atom_site_type_symbol
 _atom_site_label
 _atom_site_symmetry_multiplicity
 _atom_site_fract_x
 _atom_site_fract_y
 _atom_site_fract_z
 _atom_site_occupancy
  Tl  Tl0  1  0.30503100  0.17936200  0.76056800  1.0
  Tl  Tl1  1  0.67609200  0.29634500  0.27051900  1.0
  Tl  Tl2  1  0.74932100  0.86932400  0.99375800  1.0
  Tl  Tl3  1  0.37236200  0.74708400  0.48654900  1.0
  Tl  Tl4  1  0.17936200  0.30503100  0.26056800  1.0
  Tl  Tl5  1  0.29634500  0.67609200  0.77051900  1.0
  Tl  Tl6  1  0.74708400  0.37236200  0.98654900  1.0
  Tl  Tl7  1  0.86932400  0.74932100  0.49375800  1.0
