# generated using pymatgen
data_NbFe
_symmetry_space_group_name_H-M   'P 1'
_cell_length_a   4.71376600
_cell_length_b   5.69343500
_cell_length_c   10.16067205
_cell_angle_alpha   90.00000000
_cell_angle_beta   89.73698599
_cell_angle_gamma   90.00000000
_symmetry_Int_Tables_number   1
_chemical_formula_structural   NbFe
_chemical_formula_sum   'Nb4 Fe4'
_cell_volume   272.68436960
_cell_formula_units_Z   4
loop_
 _symmetry_equiv_pos_site_id
 _symmetry_equiv_pos_as_xyz
  1  'x, y, z'
loop_
 _atom_site_type_symbol
 _atom_site_label
 _atom_site_symmetry_multiplicity
 _atom_site_fract_x
 _atom_site_fract_y
 _atom_site_fract_z
 _atom_site_occupancy
  Nb  Nb0  1  0.00511900  0.16868500  0.24479900  1.0
  Nb  Nb1  1  0.50000000  0.34089800  0.50000000  1.0
  Nb  Nb2  1  0.00000000  0.81124100  0.00000000  1.0
  Nb  Nb3  1  0.99488100  0.16868500  0.75520100  1.0
  Fe  Fe4  1  0.50000000  0.34067000  1.00000000  1.0
  Fe  Fe5  1  0.50228000  0.67437300  0.74541500  1.0
  Fe  Fe6  1  0.49772000  0.67437300  0.25458500  1.0
  Fe  Fe7  1  0.00000000  0.82682900  0.50000000  1.0
