# generated using pymatgen
data_NbFe
_symmetry_space_group_name_H-M   'P 1'
_cell_length_a   4.73260200
_cell_length_b   5.04594300
_cell_length_c   5.71767200
_cell_angle_alpha   90.00002138
_cell_angle_beta   89.99997787
_cell_angle_gamma   89.99966019
_symmetry_Int_Tables_number   1
_chemical_formula_structural   NbFe
_chemical_formula_sum   'Nb2 Fe2'
_cell_volume   136.54052275
_cell_formula_units_Z   2
loop_
 _symmetry_equiv_pos_site_id
 _symmetry_equiv_pos_as_xyz
  1  'x, y, z'
loop_
 _atom_site_type_symbol
 _atom_site_label
 _atom_site_symmetry_multiplicity
 _atom_site_fract_x
 _atom_site_fract_y
 _atom_site_fract_z
 _atom_site_occupancy
  Nb  Nb0  1  0.49999900  0.75000100  0.68650000  1.0
  Nb  Nb1  1  0.00000000  0.75000100  0.18649500  1.0
  Fe  Fe2  1  0.50000200  0.24999500  0.33324500  1.0
  Fe  Fe3  1  0.00000300  0.25000100  0.83325200  1.0
