# generated using pymatgen
data_Mn
_symmetry_space_group_name_H-M   'P 1'
_cell_length_a   5.73311058
_cell_length_b   5.73311008
_cell_length_c   9.39836800
_cell_angle_alpha   89.99998027
_cell_angle_beta   90.00004192
_cell_angle_gamma   119.99999228
_symmetry_Int_Tables_number   1
_chemical_formula_structural   Mn
_chemical_formula_sum   Mn4
_cell_volume   267.52459232
_cell_formula_units_Z   4
loop_
 _symmetry_equiv_pos_site_id
 _symmetry_equiv_pos_as_xyz
  1  'x, y, z'
loop_
 _atom_site_type_symbol
 _atom_site_label
 _atom_site_symmetry_multiplicity
 _atom_site_fract_x
 _atom_site_fract_y
 _atom_site_fract_z
 _atom_site_occupancy
  Mn  Mn0  1  0.66666667  0.33333333  0.38763500  1.0
  Mn  Mn1  1  0.33333333  0.66666667  0.88763600  1.0
  Mn  Mn2  1  0.66666667  0.33333333  0.11238300  1.0
  Mn  Mn3  1  0.33333333  0.66666667  0.61239400  1.0
