# generated using pymatgen
data_Mn
_symmetry_space_group_name_H-M   'P 1'
_cell_length_a   5.76421012
_cell_length_b   5.76421012
_cell_length_c   12.56833797
_cell_angle_alpha   76.74326915
_cell_angle_beta   76.74326915
_cell_angle_gamma   59.99999867
_symmetry_Int_Tables_number   1
_chemical_formula_structural   Mn
_chemical_formula_sum   Mn5
_cell_volume   348.74100594
_cell_formula_units_Z   5
loop_
 _symmetry_equiv_pos_site_id
 _symmetry_equiv_pos_as_xyz
  1  'x, y, z'
loop_
 _atom_site_type_symbol
 _atom_site_label
 _atom_site_symmetry_multiplicity
 _atom_site_fract_x
 _atom_site_fract_y
 _atom_site_fract_z
 _atom_site_occupancy
  Mn  Mn0  1  0.56868500  0.56868500  0.29394500  1.0
  Mn  Mn1  1  0.63851100  0.63851100  0.08446700  1.0
  Mn  Mn2  1  0.36148900  0.36148900  0.91553300  1.0
  Mn  Mn3  1  0.43131500  0.43131500  0.70605500  1.0
  Mn  Mn4  1  0.50000000  0.50000000  0.50000000  1.0
