# generated using pymatgen
data_Mn
_symmetry_space_group_name_H-M   'P 1'
_cell_length_a   5.77249000
_cell_length_b   5.77248915
_cell_length_c   19.26893200
_cell_angle_alpha   90.00000000
_cell_angle_beta   90.00000000
_cell_angle_gamma   120.00000488
_symmetry_Int_Tables_number   1
_chemical_formula_structural   Mn
_chemical_formula_sum   Mn8
_cell_volume   556.05092699
_cell_formula_units_Z   8
loop_
 _symmetry_equiv_pos_site_id
 _symmetry_equiv_pos_as_xyz
  1  'x, y, z'
loop_
 _atom_site_type_symbol
 _atom_site_label
 _atom_site_symmetry_multiplicity
 _atom_site_fract_x
 _atom_site_fract_y
 _atom_site_fract_z
 _atom_site_occupancy
  Mn  Mn0  1  0.66666667  0.33333333  0.18468400  1.0
  Mn  Mn1  1  0.33333333  0.66666667  0.94727700  1.0
  Mn  Mn2  1  0.66666667  0.33333333  0.05272300  1.0
  Mn  Mn3  1  0.66666667  0.33333333  0.44727700  1.0
  Mn  Mn4  1  0.33333333  0.66666667  0.81531600  1.0
  Mn  Mn5  1  0.66666667  0.33333333  0.31531600  1.0
  Mn  Mn6  1  0.33333333  0.66666667  0.68468400  1.0
  Mn  Mn7  1  0.33333333  0.66666667  0.55272300  1.0
