# generated using pymatgen
data_Mn
_symmetry_space_group_name_H-M   'P 1'
_cell_length_a   5.04545600
_cell_length_b   10.05463200
_cell_length_c   10.05463223
_cell_angle_alpha   119.99999925
_cell_angle_beta   90.00000000
_cell_angle_gamma   90.00000000
_symmetry_Int_Tables_number   1
_chemical_formula_structural   Mn
_chemical_formula_sum   Mn6
_cell_volume   441.73664488
_cell_formula_units_Z   6
loop_
 _symmetry_equiv_pos_site_id
 _symmetry_equiv_pos_as_xyz
  1  'x, y, z'
loop_
 _atom_site_type_symbol
 _atom_site_label
 _atom_site_symmetry_multiplicity
 _atom_site_fract_x
 _atom_site_fract_y
 _atom_site_fract_z
 _atom_site_occupancy
  Mn  Mn0  1  0.09045500  0.66666667  0.33333333  1.0
  Mn  Mn1  1  0.59045500  0.33333333  0.66666667  1.0
  Mn  Mn2  1  0.59045500  0.66666667  0.33333333  1.0
  Mn  Mn3  1  0.09045500  0.33333333  0.66666667  1.0
  Mn  Mn4  1  0.42332300  0.00000000  0.00000000  1.0
  Mn  Mn5  1  0.92332300  0.00000000  0.00000000  1.0
