# generated using pymatgen
data_Mn
_symmetry_space_group_name_H-M   'P 1'
_cell_length_a   4.93412600
_cell_length_b   5.80046697
_cell_length_c   5.80047343
_cell_angle_alpha   119.99385442
_cell_angle_beta   89.99999195
_cell_angle_gamma   89.99991221
_symmetry_Int_Tables_number   1
_chemical_formula_structural   Mn
_chemical_formula_sum   Mn2
_cell_volume   143.77856954
_cell_formula_units_Z   2
loop_
 _symmetry_equiv_pos_site_id
 _symmetry_equiv_pos_as_xyz
  1  'x, y, z'
loop_
 _atom_site_type_symbol
 _atom_site_label
 _atom_site_symmetry_multiplicity
 _atom_site_fract_x
 _atom_site_fract_y
 _atom_site_fract_z
 _atom_site_occupancy
  Mn  Mn0  1  0.50000200  0.99999850  0.99999850  1.0
  Mn  Mn1  1  0.99999600  0.99999850  0.99999950  1.0
