# generated using pymatgen
data_Mo
_symmetry_space_group_name_H-M   'P 1'
_cell_length_a   9.72782000
_cell_length_b   12.38137400
_cell_length_c   12.96518072
_cell_angle_alpha   90.00000000
_cell_angle_beta   109.72284729
_cell_angle_gamma   90.00000000
_symmetry_Int_Tables_number   1
_chemical_formula_structural   Mo
_chemical_formula_sum   Mo8
_cell_volume   1469.96716518
_cell_formula_units_Z   8
loop_
 _symmetry_equiv_pos_site_id
 _symmetry_equiv_pos_as_xyz
  1  'x, y, z'
loop_
 _atom_site_type_symbol
 _atom_site_label
 _atom_site_symmetry_multiplicity
 _atom_site_fract_x
 _atom_site_fract_y
 _atom_site_fract_z
 _atom_site_occupancy
  Mo  Mo0  1  0.69436800  0.62451600  0.20640600  1.0
  Mo  Mo1  1  0.30563200  0.12451600  0.29359400  1.0
  Mo  Mo2  1  0.30563200  0.37548400  0.79359400  1.0
  Mo  Mo3  1  0.69436800  0.87548400  0.70640600  1.0
  Mo  Mo4  1  0.11937400  0.62795000  0.31445800  1.0
  Mo  Mo5  1  0.88062600  0.12795000  0.18554200  1.0
  Mo  Mo6  1  0.88062600  0.37205000  0.68554200  1.0
  Mo  Mo7  1  0.11937400  0.87205000  0.81445800  1.0
