# generated using pymatgen
data_Mo
_symmetry_space_group_name_H-M   'P 1'
_cell_length_a   6.46835397
_cell_length_b   6.95229197
_cell_length_c   9.49701302
_cell_angle_alpha   109.69222571
_cell_angle_beta   91.33193522
_cell_angle_gamma   116.76275949
_symmetry_Int_Tables_number   1
_chemical_formula_structural   Mo
_chemical_formula_sum   Mo2
_cell_volume   351.16510497
_cell_formula_units_Z   2
loop_
 _symmetry_equiv_pos_site_id
 _symmetry_equiv_pos_as_xyz
  1  'x, y, z'
loop_
 _atom_site_type_symbol
 _atom_site_label
 _atom_site_symmetry_multiplicity
 _atom_site_fract_x
 _atom_site_fract_y
 _atom_site_fract_z
 _atom_site_occupancy
  Mo  Mo0  1  0.10528215  0.71492304  0.71426486  1.0
  Mo  Mo1  1  0.89471785  0.28507696  0.28573514  1.0
