# generated using pymatgen
data_V2Cr
_symmetry_space_group_name_H-M   'P 1'
_cell_length_a   8.48419600
_cell_length_b   9.55155100
_cell_length_c   14.90447923
_cell_angle_alpha   90.00000000
_cell_angle_beta   76.88776705
_cell_angle_gamma   90.00000000
_symmetry_Int_Tables_number   1
_chemical_formula_structural   V2Cr
_chemical_formula_sum   'V16 Cr8'
_cell_volume   1176.32696057
_cell_formula_units_Z   8
loop_
 _symmetry_equiv_pos_site_id
 _symmetry_equiv_pos_as_xyz
  1  'x, y, z'
loop_
 _atom_site_type_symbol
 _atom_site_label
 _atom_site_symmetry_multiplicity
 _atom_site_fract_x
 _atom_site_fract_y
 _atom_site_fract_z
 _atom_site_occupancy
  V  V0  1  0.53487000  0.28926400  0.90816000  1.0
  V  V1  1  0.46513000  0.78926400  0.59184000  1.0
  V  V2  1  0.46513000  0.71073600  0.09184000  1.0
  V  V3  1  0.53487000  0.21073600  0.40816000  1.0
  V  V4  1  0.74260600  0.27518100  0.67132100  1.0
  V  V5  1  0.25739400  0.77518100  0.82867900  1.0
  V  V6  1  0.25739400  0.72481900  0.32867900  1.0
  V  V7  1  0.74260600  0.22481900  0.17132100  1.0
  V  V8  1  0.14146500  0.25865700  0.67242600  1.0
  V  V9  1  0.85853500  0.75865700  0.82757400  1.0
  V  V10  1  0.85853500  0.74134300  0.32757400  1.0
  V  V11  1  0.14146500  0.24134300  0.17242600  1.0
  V  V12  1  0.95669900  0.70937500  0.59223000  1.0
  V  V13  1  0.04330100  0.20937500  0.90777000  1.0
  V  V14  1  0.04330100  0.29062500  0.40777000  1.0
  V  V15  1  0.95669900  0.79062500  0.09223000  1.0
  Cr  Cr16  1  0.19005300  0.00084900  0.49055500  1.0
  Cr  Cr17  1  0.80994700  0.50084900  0.00944500  1.0
  Cr  Cr18  1  0.80994700  0.99915100  0.50944500  1.0
  Cr  Cr19  1  0.19005300  0.49915100  0.99055500  1.0
  Cr  Cr20  1  0.31057800  0.50169300  0.51318700  1.0
  Cr  Cr21  1  0.68942200  0.00169300  0.98681300  1.0
  Cr  Cr22  1  0.68942200  0.49830700  0.48681300  1.0
  Cr  Cr23  1  0.31057800  0.99830700  0.01318700  1.0
