# generated using pymatgen
data_Fe
_symmetry_space_group_name_H-M   'P 1'
_cell_length_a   6.28335400
_cell_length_b   6.28335384
_cell_length_c   15.45060300
_cell_angle_alpha   90.00000000
_cell_angle_beta   90.00000000
_cell_angle_gamma   120.00000085
_symmetry_Int_Tables_number   1
_chemical_formula_structural   Fe
_chemical_formula_sum   Fe12
_cell_volume   528.27384246
_cell_formula_units_Z   12
loop_
 _symmetry_equiv_pos_site_id
 _symmetry_equiv_pos_as_xyz
  1  'x, y, z'
loop_
 _atom_site_type_symbol
 _atom_site_label
 _atom_site_symmetry_multiplicity
 _atom_site_fract_x
 _atom_site_fract_y
 _atom_site_fract_z
 _atom_site_occupancy
  Fe  Fe0  1  0.16942100  0.83058000  0.83067900  1.0
  Fe  Fe1  1  0.16942100  0.33884200  0.83067900  1.0
  Fe  Fe2  1  0.83409700  0.16590400  0.50041700  1.0
  Fe  Fe3  1  0.66115900  0.83058000  0.83067900  1.0
  Fe  Fe4  1  0.00000000  0.00000000  0.66662700  1.0
  Fe  Fe5  1  0.83409700  0.66819400  0.50041700  1.0
  Fe  Fe6  1  0.50517600  0.49482400  0.16996600  1.0
  Fe  Fe7  1  0.33180700  0.16590400  0.50041700  1.0
  Fe  Fe8  1  0.98964800  0.49482400  0.16996600  1.0
  Fe  Fe9  1  0.66666667  0.33333333  0.33847300  1.0
  Fe  Fe10  1  0.50517600  0.01035200  0.16996600  1.0
  Fe  Fe11  1  0.00000000  0.00000000  0.04741600  1.0
