# generated using pymatgen
data_Fe
_symmetry_space_group_name_H-M   'P 1'
_cell_length_a   3.06535800
_cell_length_b   5.23859262
_cell_length_c   10.13688800
_cell_angle_alpha   90.00000000
_cell_angle_beta   90.00000000
_cell_angle_gamma   107.01215500
_symmetry_Int_Tables_number   1
_chemical_formula_structural   Fe
_chemical_formula_sum   Fe4
_cell_volume   155.65698513
_cell_formula_units_Z   4
loop_
 _symmetry_equiv_pos_site_id
 _symmetry_equiv_pos_as_xyz
  1  'x, y, z'
loop_
 _atom_site_type_symbol
 _atom_site_label
 _atom_site_symmetry_multiplicity
 _atom_site_fract_x
 _atom_site_fract_y
 _atom_site_fract_z
 _atom_site_occupancy
  Fe  Fe0  1  0.86459500  0.72919000  0.92926500  1.0
  Fe  Fe1  1  0.13540500  0.27081000  0.07073500  1.0
  Fe  Fe2  1  0.86459500  0.72919000  0.57073500  1.0
  Fe  Fe3  1  0.13540500  0.27081000  0.42926500  1.0
