# generated using pymatgen
data_Fe
_symmetry_space_group_name_H-M   'P 1'
_cell_length_a   3.05970100
_cell_length_b   9.32848900
_cell_length_c   10.85976300
_cell_angle_alpha   90.00000000
_cell_angle_beta   90.00000000
_cell_angle_gamma   90.00000000
_symmetry_Int_Tables_number   1
_chemical_formula_structural   Fe
_chemical_formula_sum   Fe8
_cell_volume   309.96355960
_cell_formula_units_Z   8
loop_
 _symmetry_equiv_pos_site_id
 _symmetry_equiv_pos_as_xyz
  1  'x, y, z'
loop_
 _atom_site_type_symbol
 _atom_site_label
 _atom_site_symmetry_multiplicity
 _atom_site_fract_x
 _atom_site_fract_y
 _atom_site_fract_z
 _atom_site_occupancy
  Fe  Fe0  1  0.25000000  0.41947800  0.10413800  1.0
  Fe  Fe1  1  0.75000000  0.08052200  0.60413800  1.0
  Fe  Fe2  1  0.25000000  0.91947800  0.39586200  1.0
  Fe  Fe3  1  0.75000000  0.58052200  0.89586200  1.0
  Fe  Fe4  1  0.75000000  0.56642100  0.38929400  1.0
  Fe  Fe5  1  0.25000000  0.43357900  0.61070600  1.0
  Fe  Fe6  1  0.75000000  0.06642100  0.11070600  1.0
  Fe  Fe7  1  0.25000000  0.93357900  0.88929400  1.0
