# generated using pymatgen
data_Fe
_symmetry_space_group_name_H-M   'P 1'
_cell_length_a   6.26446600
_cell_length_b   6.26593507
_cell_length_c   6.26593507
_cell_angle_alpha   60.00374763
_cell_angle_beta   60.00775534
_cell_angle_gamma   60.00775533
_symmetry_Int_Tables_number   1
_chemical_formula_structural   Fe
_chemical_formula_sum   Fe4
_cell_volume   173.94183206
_cell_formula_units_Z   4
loop_
 _symmetry_equiv_pos_site_id
 _symmetry_equiv_pos_as_xyz
  1  'x, y, z'
loop_
 _atom_site_type_symbol
 _atom_site_label
 _atom_site_symmetry_multiplicity
 _atom_site_fract_x
 _atom_site_fract_y
 _atom_site_fract_z
 _atom_site_occupancy
  Fe  Fe0  1  0.86106400  0.88893600  0.38893600  1.0
  Fe  Fe1  1  0.13893600  0.11106400  0.61106400  1.0
  Fe  Fe2  1  0.50000000  0.50000000  0.50000000  1.0
  Fe  Fe3  1  0.50000000  1.00000000  0.00000000  1.0
