# generated using pymatgen
data_Fe
_symmetry_space_group_name_H-M   'P 1'
_cell_length_a   6.26115000
_cell_length_b   6.27632545
_cell_length_c   15.52954483
_cell_angle_alpha   90.53990890
_cell_angle_beta   90.00000000
_cell_angle_gamma   119.92004911
_symmetry_Int_Tables_number   1
_chemical_formula_structural   Fe
_chemical_formula_sum   Fe12
_cell_volume   528.89879106
_cell_formula_units_Z   12
loop_
 _symmetry_equiv_pos_site_id
 _symmetry_equiv_pos_as_xyz
  1  'x, y, z'
loop_
 _atom_site_type_symbol
 _atom_site_label
 _atom_site_symmetry_multiplicity
 _atom_site_fract_x
 _atom_site_fract_y
 _atom_site_fract_z
 _atom_site_occupancy
  Fe  Fe0  1  0.66182800  0.83811000  0.16481800  1.0
  Fe  Fe1  1  0.66041800  0.32083600  0.16557000  1.0
  Fe  Fe2  1  0.00034500  0.49445000  0.50037400  1.0
  Fe  Fe3  1  0.17628200  0.83811000  0.16481800  1.0
  Fe  Fe4  1  0.98728400  0.97456800  0.51101300  1.0
  Fe  Fe5  1  0.16654000  0.33308000  0.66213200  1.0
  Fe  Fe6  1  0.16846900  0.33693800  0.28312800  1.0
  Fe  Fe7  1  0.32821600  0.16768800  0.82869900  1.0
  Fe  Fe8  1  0.49410500  0.49445000  0.50037400  1.0
  Fe  Fe9  1  0.32650100  0.65300200  0.82872300  1.0
  Fe  Fe10  1  0.83947200  0.16768800  0.82869900  1.0
  Fe  Fe11  1  0.83240500  0.66481000  0.95229000  1.0
