# generated using pymatgen
data_Fe
_symmetry_space_group_name_H-M   'P 1'
_cell_length_a   3.04875200
_cell_length_b   7.46875951
_cell_length_c   8.64696760
_cell_angle_alpha   69.21726138
_cell_angle_beta   79.84624911
_cell_angle_gamma   78.22316390
_symmetry_Int_Tables_number   1
_chemical_formula_structural   Fe
_chemical_formula_sum   Fe4
_cell_volume   179.04421451
_cell_formula_units_Z   4
loop_
 _symmetry_equiv_pos_site_id
 _symmetry_equiv_pos_as_xyz
  1  'x, y, z'
loop_
 _atom_site_type_symbol
 _atom_site_label
 _atom_site_symmetry_multiplicity
 _atom_site_fract_x
 _atom_site_fract_y
 _atom_site_fract_z
 _atom_site_occupancy
  Fe  Fe0  1  0.41488500  0.37199600  0.79823400  1.0
  Fe  Fe1  1  0.84974300  0.79633300  0.50418100  1.0
  Fe  Fe2  1  0.15349900  0.17523500  0.51776700  1.0
  Fe  Fe3  1  0.58958700  0.59457900  0.22624700  1.0
