# generated using pymatgen
data_Fe
_symmetry_space_group_name_H-M   'P 1'
_cell_length_a   6.22160795
_cell_length_b   6.22160795
_cell_length_c   6.37838687
_cell_angle_alpha   60.80980789
_cell_angle_beta   60.80980789
_cell_angle_gamma   60.00000054
_symmetry_Int_Tables_number   1
_chemical_formula_structural   Fe
_chemical_formula_sum   Fe4
_cell_volume   176.68917915
_cell_formula_units_Z   4
loop_
 _symmetry_equiv_pos_site_id
 _symmetry_equiv_pos_as_xyz
  1  'x, y, z'
loop_
 _atom_site_type_symbol
 _atom_site_label
 _atom_site_symmetry_multiplicity
 _atom_site_fract_x
 _atom_site_fract_y
 _atom_site_fract_z
 _atom_site_occupancy
  Fe  Fe0  1  0.24175600  0.24175600  0.27473200  1.0
  Fe  Fe1  1  0.62879600  0.62879600  0.62861200  1.0
  Fe  Fe2  1  0.62879600  0.11379600  0.62861200  1.0
  Fe  Fe3  1  0.11379600  0.62879600  0.62861200  1.0
