# generated using pymatgen
data_NbCr
_symmetry_space_group_name_H-M   'P 1'
_cell_length_a   3.95928948
_cell_length_b   3.95930114
_cell_length_c   5.60135055
_cell_angle_alpha   110.69654705
_cell_angle_beta   110.69685071
_cell_angle_gamma   89.99997707
_symmetry_Int_Tables_number   1
_chemical_formula_structural   NbCr
_chemical_formula_sum   'Nb1 Cr1'
_cell_volume   76.05248641
_cell_formula_units_Z   1
loop_
 _symmetry_equiv_pos_site_id
 _symmetry_equiv_pos_as_xyz
  1  'x, y, z'
loop_
 _atom_site_type_symbol
 _atom_site_label
 _atom_site_symmetry_multiplicity
 _atom_site_fract_x
 _atom_site_fract_y
 _atom_site_fract_z
 _atom_site_occupancy
  Nb  Nb0  1  0.99999900  0.00000100  0.00000100  1.0
  Cr  Cr1  1  0.75000000  0.25000000  0.50000000  1.0
