# generated using pymatgen
data_NbCr
_symmetry_space_group_name_H-M   'P 1'
_cell_length_a   6.60709716
_cell_length_b   6.60703527
_cell_length_c   7.87168593
_cell_angle_alpha   72.62068529
_cell_angle_beta   72.62048289
_cell_angle_gamma   84.83792426
_symmetry_Int_Tables_number   1
_chemical_formula_structural   NbCr
_chemical_formula_sum   'Nb4 Cr4'
_cell_volume   312.96674339
_cell_formula_units_Z   4
loop_
 _symmetry_equiv_pos_site_id
 _symmetry_equiv_pos_as_xyz
  1  'x, y, z'
loop_
 _atom_site_type_symbol
 _atom_site_label
 _atom_site_symmetry_multiplicity
 _atom_site_fract_x
 _atom_site_fract_y
 _atom_site_fract_z
 _atom_site_occupancy
  Nb  Nb0  1  0.77759000  0.77758000  0.85811900  1.0
  Nb  Nb1  1  0.22240900  0.22242300  0.14187900  1.0
  Nb  Nb2  1  0.22190500  0.77809700  0.49999300  1.0
  Nb  Nb3  1  0.77809700  0.22190100  0.50000700  1.0
  Cr  Cr4  1  0.81751000  0.81750500  0.34312300  1.0
  Cr  Cr5  1  0.18249500  0.18249100  0.65687300  1.0
  Cr  Cr6  1  0.18264800  0.81738500  0.99998500  1.0
  Cr  Cr7  1  0.81735200  0.18261300  0.00002500  1.0
