# generated using pymatgen
data_NbCr
_symmetry_space_group_name_H-M   'P 1'
_cell_length_a   5.63803026
_cell_length_b   5.63803164
_cell_length_c   5.63803272
_cell_angle_alpha   107.10235728
_cell_angle_beta   107.10401747
_cell_angle_gamma   114.31881352
_symmetry_Int_Tables_number   1
_chemical_formula_structural   NbCr
_chemical_formula_sum   'Nb2 Cr2'
_cell_volume   137.21518421
_cell_formula_units_Z   2
loop_
 _symmetry_equiv_pos_site_id
 _symmetry_equiv_pos_as_xyz
  1  'x, y, z'
loop_
 _atom_site_type_symbol
 _atom_site_label
 _atom_site_symmetry_multiplicity
 _atom_site_fract_x
 _atom_site_fract_y
 _atom_site_fract_z
 _atom_site_occupancy
  Nb  Nb0  1  0.73775900  0.23775900  0.50000000  1.0
  Nb  Nb1  1  0.98774100  0.98774100  0.00000000  1.0
  Cr  Cr2  1  0.24811700  0.74811600  0.49999900  1.0
  Cr  Cr3  1  0.49812300  0.49812800  0.99999800  1.0
