# generated using pymatgen
data_NbCr
_symmetry_space_group_name_H-M   'P 1'
_cell_length_a   4.57245100
_cell_length_b   4.95584400
_cell_length_c   11.79427600
_cell_angle_alpha   90.00004741
_cell_angle_beta   89.99999514
_cell_angle_gamma   89.99967524
_symmetry_Int_Tables_number   1
_chemical_formula_structural   NbCr
_chemical_formula_sum   'Nb4 Cr4'
_cell_volume   267.26246760
_cell_formula_units_Z   4
loop_
 _symmetry_equiv_pos_site_id
 _symmetry_equiv_pos_as_xyz
  1  'x, y, z'
loop_
 _atom_site_type_symbol
 _atom_site_label
 _atom_site_symmetry_multiplicity
 _atom_site_fract_x
 _atom_site_fract_y
 _atom_site_fract_z
 _atom_site_occupancy
  Nb  Nb0  1  1.00000000  0.24999900  0.82849100  1.0
  Nb  Nb1  1  0.99999900  0.74999800  0.17150300  1.0
  Nb  Nb2  1  0.50000500  0.25000300  0.32849000  1.0
  Nb  Nb3  1  0.50000600  0.75000000  0.67150200  1.0
  Cr  Cr4  1  1.00000000  0.74999700  0.43437900  1.0
  Cr  Cr5  1  0.50000000  0.75000000  0.93437600  1.0
  Cr  Cr6  1  0.99999600  0.24999900  0.56562900  1.0
  Cr  Cr7  1  0.49999600  0.25000400  0.06562400  1.0
