# generated using pymatgen
data_Os
_symmetry_space_group_name_H-M   'P 1'
_cell_length_a   5.39148435
_cell_length_b   5.43119108
_cell_length_c   7.65305940
_cell_angle_alpha   89.99915841
_cell_angle_beta   89.96279507
_cell_angle_gamma   89.98135563
_symmetry_Int_Tables_number   1
_chemical_formula_structural   Os
_chemical_formula_sum   Os4
_cell_volume   224.09821685
_cell_formula_units_Z   4
loop_
 _symmetry_equiv_pos_site_id
 _symmetry_equiv_pos_as_xyz
  1  'x, y, z'
loop_
 _atom_site_type_symbol
 _atom_site_label
 _atom_site_symmetry_multiplicity
 _atom_site_fract_x
 _atom_site_fract_y
 _atom_site_fract_z
 _atom_site_occupancy
  Os  Os0  1  0.50000000  0.99999900  0.00000000  1.0
  Os  Os1  1  0.50000100  0.00000100  0.50000000  1.0
  Os  Os2  1  0.00000100  0.50000100  0.50000000  1.0
  Os  Os3  1  0.99999900  0.50000000  0.00000000  1.0
