# generated using pymatgen
data_Tb3Nb
_symmetry_space_group_name_H-M   'P 1'
_cell_length_a   7.49942700
_cell_length_b   7.63413400
_cell_length_c   10.64209900
_cell_angle_alpha   90.00000000
_cell_angle_beta   90.00000000
_cell_angle_gamma   90.00000000
_symmetry_Int_Tables_number   1
_chemical_formula_structural   Tb3Nb
_chemical_formula_sum   'Tb12 Nb4'
_cell_volume   609.27752120
_cell_formula_units_Z   4
loop_
 _symmetry_equiv_pos_site_id
 _symmetry_equiv_pos_as_xyz
  1  'x, y, z'
loop_
 _atom_site_type_symbol
 _atom_site_label
 _atom_site_symmetry_multiplicity
 _atom_site_fract_x
 _atom_site_fract_y
 _atom_site_fract_z
 _atom_site_occupancy
  Tb  Tb0  1  0.01544100  0.79958100  0.25000000  1.0
  Tb  Tb1  1  0.24960700  0.96663400  0.52178600  1.0
  Tb  Tb2  1  0.24960700  0.96663400  0.97821400  1.0
  Tb  Tb3  1  0.25039300  0.46663400  0.02178600  1.0
  Tb  Tb4  1  0.25039300  0.46663400  0.47821400  1.0
  Tb  Tb5  1  0.48455900  0.29958100  0.75000000  1.0
  Tb  Tb6  1  0.51544100  0.70041900  0.25000000  1.0
  Tb  Tb7  1  0.74960700  0.53336600  0.52178600  1.0
  Tb  Tb8  1  0.74960700  0.53336600  0.97821400  1.0
  Tb  Tb9  1  0.75039300  0.03336600  0.02178600  1.0
  Tb  Tb10  1  0.75039300  0.03336600  0.47821400  1.0
  Tb  Tb11  1  0.98455900  0.20041900  0.75000000  1.0
  Nb  Nb12  1  0.99561500  0.74574000  0.75000000  1.0
  Nb  Nb13  1  0.50438500  0.24574000  0.25000000  1.0
  Nb  Nb14  1  0.49561500  0.75426000  0.75000000  1.0
  Nb  Nb15  1  0.00438500  0.25426000  0.25000000  1.0
