# generated using pymatgen
data_Ru
_symmetry_space_group_name_H-M   'P 1'
_cell_length_a   5.46611855
_cell_length_b   5.46611855
_cell_length_c   5.46611855
_cell_angle_alpha   89.86510922
_cell_angle_beta   60.06146476
_cell_angle_gamma   119.90577016
_symmetry_Int_Tables_number   1
_chemical_formula_structural   Ru
_chemical_formula_sum   Ru2
_cell_volume   115.61961288
_cell_formula_units_Z   2
loop_
 _symmetry_equiv_pos_site_id
 _symmetry_equiv_pos_as_xyz
  1  'x, y, z'
loop_
 _atom_site_type_symbol
 _atom_site_label
 _atom_site_symmetry_multiplicity
 _atom_site_fract_x
 _atom_site_fract_y
 _atom_site_fract_z
 _atom_site_occupancy
  Ru  Ru0  1  0.49931200  0.74885400  0.75045800  1.0
  Ru  Ru1  1  0.49931200  0.24977000  0.24954300  1.0
