# generated using pymatgen
data_Er
_symmetry_space_group_name_H-M   'P 1'
_cell_length_a   3.46044400
_cell_length_b   7.18515988
_cell_length_c   8.56523456
_cell_angle_alpha   100.07007815
_cell_angle_beta   90.00000000
_cell_angle_gamma   103.93405348
_symmetry_Int_Tables_number   1
_chemical_formula_structural   Er
_chemical_formula_sum   Er6
_cell_volume   203.31595487
_cell_formula_units_Z   6
loop_
 _symmetry_equiv_pos_site_id
 _symmetry_equiv_pos_as_xyz
  1  'x, y, z'
loop_
 _atom_site_type_symbol
 _atom_site_label
 _atom_site_symmetry_multiplicity
 _atom_site_fract_x
 _atom_site_fract_y
 _atom_site_fract_z
 _atom_site_occupancy
  Er  Er0  1  0.53208900  0.06417800  0.81403200  1.0
  Er  Er1  1  0.46791100  0.93582200  0.18596800  1.0
  Er  Er2  1  0.80860400  0.61720800  0.86282700  1.0
  Er  Er3  1  0.19139600  0.38279200  0.13717300  1.0
  Er  Er4  1  0.86485200  0.72970400  0.51236800  1.0
  Er  Er5  1  0.13514800  0.27029600  0.48763200  1.0
