# generated using pymatgen
data_Gd
_symmetry_space_group_name_H-M   'P 1'
_cell_length_a   3.58113600
_cell_length_b   7.44239038
_cell_length_c   8.82555260
_cell_angle_alpha   100.45719472
_cell_angle_beta   90.00000000
_cell_angle_gamma   103.92139140
_symmetry_Int_Tables_number   1
_chemical_formula_structural   Gd
_chemical_formula_sum   Gd6
_cell_volume   224.28415463
_cell_formula_units_Z   6
loop_
 _symmetry_equiv_pos_site_id
 _symmetry_equiv_pos_as_xyz
  1  'x, y, z'
loop_
 _atom_site_type_symbol
 _atom_site_label
 _atom_site_symmetry_multiplicity
 _atom_site_fract_x
 _atom_site_fract_y
 _atom_site_fract_z
 _atom_site_occupancy
  Gd  Gd0  1  0.96910700  0.93821400  0.18593200  1.0
  Gd  Gd1  1  0.30818300  0.61636600  0.86305000  1.0
  Gd  Gd2  1  0.69181700  0.38363400  0.13695000  1.0
  Gd  Gd3  1  0.36523100  0.73046200  0.50881900  1.0
  Gd  Gd4  1  0.03089300  0.06178600  0.81406800  1.0
  Gd  Gd5  1  0.63476900  0.26953800  0.49118100  1.0
