# generated using pymatgen
data_Fe
_symmetry_space_group_name_H-M   'P 1'
_cell_length_a   5.27105948
_cell_length_b   6.61996800
_cell_length_c   6.61996800
_cell_angle_alpha   85.01097528
_cell_angle_beta   80.97209836
_cell_angle_gamma   80.97209836
_symmetry_Int_Tables_number   1
_chemical_formula_structural   Fe
_chemical_formula_sum   Fe2
_cell_volume   224.85032858
_cell_formula_units_Z   2
loop_
 _symmetry_equiv_pos_site_id
 _symmetry_equiv_pos_as_xyz
  1  'x, y, z'
loop_
 _atom_site_type_symbol
 _atom_site_label
 _atom_site_symmetry_multiplicity
 _atom_site_fract_x
 _atom_site_fract_y
 _atom_site_fract_z
 _atom_site_occupancy
  Fe  Fe0  1  0.75000000  0.89967000  0.10033000  1.0
  Fe  Fe1  1  0.25000000  0.10033000  0.89967000  1.0
