# generated using pymatgen
data_Mn
_symmetry_space_group_name_H-M   'P 1'
_cell_length_a   5.38408000
_cell_length_b   9.33619700
_cell_length_c   10.43083400
_cell_angle_alpha   90.00000000
_cell_angle_beta   104.70771197
_cell_angle_gamma   90.00000000
_symmetry_Int_Tables_number   1
_chemical_formula_structural   Mn
_chemical_formula_sum   Mn4
_cell_volume   507.14472757
_cell_formula_units_Z   4
loop_
 _symmetry_equiv_pos_site_id
 _symmetry_equiv_pos_as_xyz
  1  'x, y, z'
loop_
 _atom_site_type_symbol
 _atom_site_label
 _atom_site_symmetry_multiplicity
 _atom_site_fract_x
 _atom_site_fract_y
 _atom_site_fract_z
 _atom_site_occupancy
  Mn  Mn0  1  0.03327100  0.65912200  0.76345200  1.0
  Mn  Mn1  1  0.46672900  0.15912200  0.23654800  1.0
  Mn  Mn2  1  0.96672900  0.34087800  0.23654800  1.0
  Mn  Mn3  1  0.53327100  0.84087800  0.76345200  1.0
