# generated using pymatgen
data_Cr
_symmetry_space_group_name_H-M   'P 1'
_cell_length_a   5.98982114
_cell_length_b   5.99025364
_cell_length_c   6.00701596
_cell_angle_alpha   106.03446301
_cell_angle_beta   106.04083495
_cell_angle_gamma   116.45375001
_symmetry_Int_Tables_number   1
_chemical_formula_structural   Cr
_chemical_formula_sum   Cr2
_cell_volume   164.27408094
_cell_formula_units_Z   2
loop_
 _symmetry_equiv_pos_site_id
 _symmetry_equiv_pos_as_xyz
  1  'x, y, z'
loop_
 _atom_site_type_symbol
 _atom_site_label
 _atom_site_symmetry_multiplicity
 _atom_site_fract_x
 _atom_site_fract_y
 _atom_site_fract_z
 _atom_site_occupancy
  Cr  Cr0  1  0.12490250  0.37520750  0.75003150  1.0
  Cr  Cr1  1  0.87509600  0.62471600  0.24992550  1.0
