# generated using pymatgen
data_Ti
_symmetry_space_group_name_H-M   'P 1'
_cell_length_a   3.92666659
_cell_length_b   3.92666659
_cell_length_c   24.60516834
_cell_angle_alpha   94.57669922
_cell_angle_beta   94.57669692
_cell_angle_gamma   90.00000000
_symmetry_Int_Tables_number   1
_chemical_formula_structural   Ti
_chemical_formula_sum   Ti5
_cell_volume   376.95671327
_cell_formula_units_Z   5
loop_
 _symmetry_equiv_pos_site_id
 _symmetry_equiv_pos_as_xyz
  1  'x, y, z'
loop_
 _atom_site_type_symbol
 _atom_site_label
 _atom_site_symmetry_multiplicity
 _atom_site_fract_x
 _atom_site_fract_y
 _atom_site_fract_z
 _atom_site_occupancy
  Ti  Ti0  1  0.33232060  0.33232060  0.66464120  1.0
  Ti  Ti1  1  0.66767940  0.66767940  0.33535880  1.0
  Ti  Ti2  1  0.41614985  0.41614985  0.83229970  1.0
  Ti  Ti3  1  0.58385015  0.58385015  0.16770030  1.0
  Ti  Ti4  1  0.50000000  0.50000000  0.00000000  1.0
