# generated using pymatgen
data_Ni
_symmetry_space_group_name_H-M   'P 1'
_cell_length_a   5.31371000
_cell_length_b   9.17544500
_cell_length_c   10.24948610
_cell_angle_alpha   90.00000000
_cell_angle_beta   104.05289949
_cell_angle_gamma   90.00000000
_symmetry_Int_Tables_number   1
_chemical_formula_structural   Ni
_chemical_formula_sum   Ni4
_cell_volume   484.76474116
_cell_formula_units_Z   4
loop_
 _symmetry_equiv_pos_site_id
 _symmetry_equiv_pos_as_xyz
  1  'x, y, z'
loop_
 _atom_site_type_symbol
 _atom_site_label
 _atom_site_symmetry_multiplicity
 _atom_site_fract_x
 _atom_site_fract_y
 _atom_site_fract_z
 _atom_site_occupancy
  Ni  Ni0  1  0.03462700  0.66459700  0.76611400  1.0
  Ni  Ni1  1  0.46537300  0.16459700  0.23388600  1.0
  Ni  Ni2  1  0.96537300  0.33540300  0.23388600  1.0
  Ni  Ni3  1  0.53462700  0.83540300  0.76611400  1.0
