# generated using pymatgen
data_Mn
_symmetry_space_group_name_H-M   'P 1'
_cell_length_a   3.06941303
_cell_length_b   9.74305300
_cell_length_c   9.99210734
_cell_angle_alpha   89.99937809
_cell_angle_beta   89.90629897
_cell_angle_gamma   89.99854842
_symmetry_Int_Tables_number   1
_chemical_formula_structural   Mn
_chemical_formula_sum   Mn12
_cell_volume   298.81810501
_cell_formula_units_Z   12
loop_
 _symmetry_equiv_pos_site_id
 _symmetry_equiv_pos_as_xyz
  1  'x, y, z'
loop_
 _atom_site_type_symbol
 _atom_site_label
 _atom_site_symmetry_multiplicity
 _atom_site_fract_x
 _atom_site_fract_y
 _atom_site_fract_z
 _atom_site_occupancy
  Mn  Mn0  1  0.29759200  0.75014900  0.14341200  1.0
  Mn  Mn1  1  0.70249300  0.75001000  0.64333400  1.0
  Mn  Mn2  1  0.68599800  0.24998300  0.85472200  1.0
  Mn  Mn3  1  0.31377500  0.24983600  0.35496200  1.0
  Mn  Mn4  1  0.20875900  0.43035900  0.61488800  1.0
  Mn  Mn5  1  0.21452800  0.92942500  0.88537900  1.0
  Mn  Mn6  1  0.79103000  0.43029800  0.11486400  1.0
  Mn  Mn7  1  0.21467000  0.57052400  0.88543500  1.0
  Mn  Mn8  1  0.78562000  0.57056200  0.38540400  1.0
  Mn  Mn9  1  0.79127400  0.06973200  0.11487500  1.0
  Mn  Mn10  1  0.78548300  0.92943200  0.38536400  1.0
  Mn  Mn11  1  0.20825600  0.06967500  0.61490300  1.0
