# generated using pymatgen
data_Tb
_symmetry_space_group_name_H-M   'P 1'
_cell_length_a   9.30467393
_cell_length_b   9.30467393
_cell_length_c   9.30467393
_cell_angle_alpha   109.47122063
_cell_angle_beta   109.47122064
_cell_angle_gamma   109.47122064
_symmetry_Int_Tables_number   1
_chemical_formula_structural   Tb
_chemical_formula_sum   Tb16
_cell_volume   620.12834791
_cell_formula_units_Z   16
loop_
 _symmetry_equiv_pos_site_id
 _symmetry_equiv_pos_as_xyz
  1  'x, y, z'
loop_
 _atom_site_type_symbol
 _atom_site_label
 _atom_site_symmetry_multiplicity
 _atom_site_fract_x
 _atom_site_fract_y
 _atom_site_fract_z
 _atom_site_occupancy
  Tb  Tb0  1  0.25000000  0.28223300  0.03223300  1.0
  Tb  Tb1  1  0.53223300  0.25000000  0.78223300  1.0
  Tb  Tb2  1  0.28223300  0.53223300  0.75000000  1.0
  Tb  Tb3  1  0.96776700  0.75000000  0.71776700  1.0
  Tb  Tb4  1  0.21776700  0.96776700  0.25000000  1.0
  Tb  Tb5  1  0.75000000  0.21776700  0.46776700  1.0
  Tb  Tb6  1  0.25000000  0.78223300  0.53223300  1.0
  Tb  Tb7  1  0.03223300  0.25000000  0.28223300  1.0
  Tb  Tb8  1  0.78223300  0.03223300  0.75000000  1.0
  Tb  Tb9  1  0.46776700  0.75000000  0.21776700  1.0
  Tb  Tb10  1  0.71776700  0.46776700  0.25000000  1.0
  Tb  Tb11  1  0.75000000  0.71776700  0.96776700  1.0
  Tb  Tb12  1  0.00000000  0.00000000  0.50000000  1.0
  Tb  Tb13  1  0.50000000  0.50000000  0.50000000  1.0
  Tb  Tb14  1  0.00000000  0.50000000  0.00000000  1.0
  Tb  Tb15  1  0.50000000  0.00000000  0.00000000  1.0
