# generated using pymatgen
data_Tb
_symmetry_space_group_name_H-M   'P 1'
_cell_length_a   3.53487000
_cell_length_b   7.28509959
_cell_length_c   8.71736965
_cell_angle_alpha   100.01268367
_cell_angle_beta   90.00000000
_cell_angle_gamma   104.04061163
_symmetry_Int_Tables_number   1
_chemical_formula_structural   Tb
_chemical_formula_sum   Tb6
_cell_volume   214.25571182
_cell_formula_units_Z   6
loop_
 _symmetry_equiv_pos_site_id
 _symmetry_equiv_pos_as_xyz
  1  'x, y, z'
loop_
 _atom_site_type_symbol
 _atom_site_label
 _atom_site_symmetry_multiplicity
 _atom_site_fract_x
 _atom_site_fract_y
 _atom_site_fract_z
 _atom_site_occupancy
  Tb  Tb0  1  0.03239900  0.06479800  0.81333100  1.0
  Tb  Tb1  1  0.96760100  0.93520200  0.18666900  1.0
  Tb  Tb2  1  0.30881800  0.61763600  0.86271200  1.0
  Tb  Tb3  1  0.69118200  0.38236400  0.13728800  1.0
  Tb  Tb4  1  0.36504800  0.73009600  0.51185100  1.0
  Tb  Tb5  1  0.63495200  0.26990400  0.48814900  1.0
