# generated using pymatgen
data_Pu
_symmetry_space_group_name_H-M   'P 1'
_cell_length_a   3.78245500
_cell_length_b   4.24912000
_cell_length_c   5.14152889
_cell_angle_alpha   65.59300484
_cell_angle_beta   90.00000000
_cell_angle_gamma   90.00000000
_symmetry_Int_Tables_number   1
_chemical_formula_structural   Pu
_chemical_formula_sum   Pu4
_cell_volume   75.25035195
_cell_formula_units_Z   4
loop_
 _symmetry_equiv_pos_site_id
 _symmetry_equiv_pos_as_xyz
  1  'x, y, z'
loop_
 _atom_site_type_symbol
 _atom_site_label
 _atom_site_symmetry_multiplicity
 _atom_site_fract_x
 _atom_site_fract_y
 _atom_site_fract_z
 _atom_site_occupancy
  Pu  Pu0  1  0.10515400  0.87929000  0.24142000  1.0
  Pu  Pu1  1  0.39484600  0.37929000  0.24142000  1.0
  Pu  Pu2  1  0.60515400  0.62071000  0.75858000  1.0
  Pu  Pu3  1  0.89484600  0.12071000  0.75858000  1.0
