# generated using pymatgen
data_Cu
_symmetry_space_group_name_H-M   'P 1'
_cell_length_a   5.38141600
_cell_length_b   5.43927500
_cell_length_c   19.94036899
_cell_angle_alpha   90.00000000
_cell_angle_beta   97.75501877
_cell_angle_gamma   90.00000000
_symmetry_Int_Tables_number   1
_chemical_formula_structural   Cu
_chemical_formula_sum   Cu6
_cell_volume   578.33633080
_cell_formula_units_Z   6
loop_
 _symmetry_equiv_pos_site_id
 _symmetry_equiv_pos_as_xyz
  1  'x, y, z'
loop_
 _atom_site_type_symbol
 _atom_site_label
 _atom_site_symmetry_multiplicity
 _atom_site_fract_x
 _atom_site_fract_y
 _atom_site_fract_z
 _atom_site_occupancy
  Cu  Cu0  1  0.74992100  0.49943500  0.49984200  1.0
  Cu  Cu1  1  0.58319100  0.99936000  0.16638200  1.0
  Cu  Cu2  1  0.41680900  0.49936000  0.83361800  1.0
  Cu  Cu3  1  0.25007900  0.99943500  0.50015800  1.0
  Cu  Cu4  1  0.08308900  0.49609500  0.16617800  1.0
  Cu  Cu5  1  0.91691100  0.99609500  0.83382200  1.0
