# generated using pymatgen
data_NdMo
_symmetry_space_group_name_H-M   'P 1'
_cell_length_a   6.05896300
_cell_length_b   6.09409459
_cell_length_c   6.10733032
_cell_angle_alpha   119.42647257
_cell_angle_beta   119.08583043
_cell_angle_gamma   90.93624995
_symmetry_Int_Tables_number   1
_chemical_formula_structural   NdMo
_chemical_formula_sum   'Nd1 Mo1'
_cell_volume   161.71093274
_cell_formula_units_Z   1
loop_
 _symmetry_equiv_pos_site_id
 _symmetry_equiv_pos_as_xyz
  1  'x, y, z'
loop_
 _atom_site_type_symbol
 _atom_site_label
 _atom_site_symmetry_multiplicity
 _atom_site_fract_x
 _atom_site_fract_y
 _atom_site_fract_z
 _atom_site_occupancy
  Nd  Nd0  1  0.00000000  0.00000000  0.00000000  1.0
  Mo  Mo1  1  0.50000000  0.50000000  0.00000000  1.0
