# generated using pymatgen
data_CrFeO3
_symmetry_space_group_name_H-M   'P 1'
_cell_length_a   10.12006692
_cell_length_b   10.47822614
_cell_length_c   10.91000673
_cell_angle_alpha   93.22044539
_cell_angle_beta   88.31479468
_cell_angle_gamma   82.27422534
_symmetry_Int_Tables_number   1
_chemical_formula_structural   CrFeO3
_chemical_formula_sum   'Cr16 Fe16 O48'
_cell_volume   1143.79014555
_cell_formula_units_Z   16
loop_
 _symmetry_equiv_pos_site_id
 _symmetry_equiv_pos_as_xyz
  1  'x, y, z'
loop_
 _atom_site_type_symbol
 _atom_site_label
 _atom_site_symmetry_multiplicity
 _atom_site_fract_x
 _atom_site_fract_y
 _atom_site_fract_z
 _atom_site_occupancy
  Cr  Cr0  1  0.07023215  0.36317875  0.84319052  1
  Cr  Cr1  1  0.39334825  0.44280554  0.95437296  1
  Cr  Cr2  1  0.61849618  0.20883533  0.25302117  1
  Cr  Cr3  1  0.22656716  0.97117314  0.39899878  1
  Cr  Cr4  1  0.77829147  0.06845842  0.79930725  1
  Cr  Cr5  1  0.56987485  0.72546205  0.36925684  1
  Cr  Cr6  1  0.25336084  0.87108447  0.72829382  1
  Cr  Cr7  1  0.55557740  0.25287464  0.80547091  1
  Cr  Cr8  1  0.29609228  0.66409127  0.21728070  1
  Cr  Cr9  1  0.48733041  0.58546054  0.74636415  1
  Cr  Cr10  1  0.33661762  0.10053995  0.90770664  1
  Cr  Cr11  1  0.08239003  0.55860438  0.60110583  1
  Cr  Cr12  1  0.99404204  0.89975411  0.64350066  1
  Cr  Cr13  1  0.03644919  0.11771868  0.93125859  1
  Cr  Cr14  1  0.01457274  0.80678004  0.20376377  1
  Cr  Cr15  1  0.31551561  0.71655402  0.49121394  1
  Fe  Fe16  1  0.19483468  0.16903018  0.17439599  1
  Fe  Fe17  1  0.86529137  0.58117576  0.20752520  1
  Fe  Fe18  1  0.02490287  0.25480272  0.36560646  1
  Fe  Fe19  1  0.49733508  0.97819746  0.30220550  1
  Fe  Fe20  1  0.75974898  0.40366134  0.39076334  1
  Fe  Fe21  1  0.55604097  0.89139349  0.86232485  1
  Fe  Fe22  1  0.27994004  0.85936047  0.02519249  1
  Fe  Fe23  1  0.60119630  0.49261782  0.16423758  1
  Fe  Fe24  1  0.87891231  0.76086236  0.45054875  1
  Fe  Fe25  1  0.86216450  0.32784072  0.08370068  1
  Fe  Fe26  1  0.15843243  0.63251368  0.92521913  1
  Fe  Fe27  1  0.55483706  0.25461116  0.52414831  1
  Fe  Fe28  1  0.32008347  0.41895150  0.37142413  1
  Fe  Fe29  1  0.72253392  0.89499740  0.12932974  1
  Fe  Fe30  1  0.74361613  0.66525907  0.95898403  1
  Fe  Fe31  1  0.80133849  0.03400087  0.39728641  1
  O  O32  1  0.98134749  0.67131294  0.31238427  1
  O  O33  1  0.18564770  0.86132898  0.57034457  1
  O  O34  1  0.78143081  0.51081554  0.05694549  1
  O  O35  1  0.65817662  0.41880216  0.56380760  1
  O  O36  1  0.60507793  0.09296804  0.40497201  1
  O  O37  1  0.55796331  0.42925860  0.86133929  1
  O  O38  1  0.68149254  0.30269718  0.12623561  1
  O  O39  1  0.22874675  0.55571365  0.49920156  1
  O  O40  1  0.86975208  0.06230743  0.93718795  1
  O  O41  1  0.50715955  0.33208943  0.35605644  1
  O  O42  1  0.11555205  0.46610647  0.96514750  1
  O  O43  1  0.71175483  0.85582794  0.95568577  1
  O  O44  1  0.83629000  0.21358895  0.39742751  1
  O  O45  1  0.58109569  0.69528702  0.83618744  1
  O  O46  1  0.45294102  0.25819891  0.68139465  1
  O  O47  1  0.19028656  0.31261246  0.30362033  1
  O  O48  1  0.56099171  0.52882225  0.59005612  1
  O  O49  1  0.93651789  0.92871444  0.47714693  1
  O  O50  1  0.01240568  0.19916339  0.09858700  1
  O  O51  1  0.20791639  0.78717883  0.85898837  1
  O  O52  1  0.87316296  0.73423618  0.10441853  1
  O  O53  1  0.40489780  0.26930325  0.94889683  1
  O  O54  1  0.41125419  0.86781888  0.42768085  1
  O  O55  1  0.96453035  0.70887998  0.59928220  1
  O  O56  1  0.92851488  0.29010013  0.89862762  1
  O  O57  1  0.86324552  0.95007743  0.23874006  1
  O  O58  1  0.59539843  0.07813347  0.84658206  1
  O  O59  1  0.07596107  0.99176020  0.76724497  1
  O  O60  1  0.16736398  0.72910109  0.08969131  1
  O  O61  1  0.31546976  0.04183560  0.26901654  1
  O  O62  1  0.91029014  0.40286212  0.25539782  1
  O  O63  1  0.17134044  0.20635496  0.84498128  1
  O  O64  1  0.72480407  0.21485393  0.72372196  1
  O  O65  1  0.32950733  0.53824354  0.82765099  1
  O  O66  1  0.59613326  0.05249083  0.16865464  1
  O  O67  1  0.18335957  0.82227953  0.30891914  1
  O  O68  1  0.19576980  0.04561789  0.00915998  1
  O  O69  1  0.80940836  0.93066357  0.70181889  1
  O  O70  1  0.38440483  0.72143885  0.65754273  1
  O  O71  1  0.70448134  0.82396192  0.43411476  1
  O  O72  1  0.37885301  0.96856159  0.77150895  1
  O  O73  1  0.57818764  0.81245821  0.21696093  1
  O  O74  1  0.42016638  0.61506154  0.35419734  1
  O  O75  1  0.04406689  0.43103713  0.69629383  1
  O  O76  1  0.41589474  0.52929267  0.09997558  1
  O  O77  1  0.12082660  0.10626085  0.45415056  1
  O  O78  1  0.43463604  0.94999513  0.99424271  1
  O  O79  1  0.69913821  0.57439361  0.30994244  1
