# generated using pymatgen
data_CrFeO3
_symmetry_space_group_name_H-M   'P 1'
_cell_length_a   10.35272696
_cell_length_b   10.12698961
_cell_length_c   9.95655386
_cell_angle_alpha   85.03185435
_cell_angle_beta   86.49238390
_cell_angle_gamma   88.16394208
_symmetry_Int_Tables_number   1
_chemical_formula_structural   CrFeO3
_chemical_formula_sum   'Cr16 Fe16 O48'
_cell_volume   1037.61924192
_cell_formula_units_Z   16
loop_
 _symmetry_equiv_pos_site_id
 _symmetry_equiv_pos_as_xyz
  1  'x, y, z'
loop_
 _atom_site_type_symbol
 _atom_site_label
 _atom_site_symmetry_multiplicity
 _atom_site_fract_x
 _atom_site_fract_y
 _atom_site_fract_z
 _atom_site_occupancy
  Cr  Cr0  1  0.98723984  0.00284031  0.38478411  1
  Cr  Cr1  1  0.46236982  0.08293542  0.97954143  1
  Cr  Cr2  1  0.67074101  0.05373205  0.38488650  1
  Cr  Cr3  1  0.56942410  0.44575744  0.52152517  1
  Cr  Cr4  1  0.72274749  0.21264672  0.81251773  1
  Cr  Cr5  1  0.25222807  0.63557156  0.53659763  1
  Cr  Cr6  1  0.87383561  0.70074720  0.78096142  1
  Cr  Cr7  1  0.28415887  0.31336695  0.47606004  1
  Cr  Cr8  1  0.20255790  0.18230702  0.85800769  1
  Cr  Cr9  1  0.77881332  0.80052641  0.42488506  1
  Cr  Cr10  1  0.13936036  0.46026515  0.75066571  1
  Cr  Cr11  1  0.79559987  0.43817848  0.31180904  1
  Cr  Cr12  1  0.48712723  0.72248408  0.59737055  1
  Cr  Cr13  1  0.11594807  0.69566799  0.98038569  1
  Cr  Cr14  1  0.51064564  0.70839034  0.28818349  1
  Cr  Cr15  1  0.45596741  0.14390145  0.63535941  1
  Fe  Fe16  1  0.64981707  0.52719507  0.04686047  1
  Fe  Fe17  1  0.23132574  0.35482898  0.04451389  1
  Fe  Fe18  1  0.25260504  0.99597109  0.47906516  1
  Fe  Fe19  1  0.71066045  0.00133826  0.06961251  1
  Fe  Fe20  1  0.73582975  0.49181149  0.74740453  1
  Fe  Fe21  1  0.98822447  0.06315883  0.04549939  1
  Fe  Fe22  1  0.52239517  0.28544998  0.23220098  1
  Fe  Fe23  1  0.55691089  0.76790544  0.93454679  1
  Fe  Fe24  1  0.69885483  0.93363293  0.70118663  1
  Fe  Fe25  1  0.24875169  0.56365401  0.25930127  1
  Fe  Fe26  1  0.99934960  0.10714023  0.70946414  1
  Fe  Fe27  1  0.30366247  0.86139537  0.77021323  1
  Fe  Fe28  1  0.90570734  0.68213206  0.18926631  1
  Fe  Fe29  1  0.14562009  0.81310898  0.24571615  1
  Fe  Fe30  1  0.94304477  0.39939508  0.98074191  1
  Fe  Fe31  1  0.47507327  0.43164151  0.83993773  1
  O  O32  1  0.33775435  0.72524977  0.22350393  1
  O  O33  1  0.21483396  0.63859629  0.71205374  1
  O  O34  1  0.08115943  0.26982734  0.73220236  1
  O  O35  1  0.71008197  0.35280376  0.63048439  1
  O  O36  1  0.77791921  0.77043549  0.62863868  1
  O  O37  1  0.51077852  0.82346708  0.74590697  1
  O  O38  1  0.71341272  0.92975144  0.26088223  1
  O  O39  1  0.47089170  0.55225522  0.96798987  1
  O  O40  1  0.15141399  0.66509357  0.39746222  1
  O  O41  1  0.59094257  0.04638839  0.57028806  1
  O  O42  1  0.09973013  0.62416751  0.16366576  1
  O  O43  1  0.96411240  0.82888785  0.36383434  1
  O  O44  1  0.53663843  0.16911676  0.81335651  1
  O  O45  1  0.31334795  0.06903343  0.72589729  1
  O  O46  1  0.07387098  0.04784495  0.54049269  1
  O  O47  1  0.91565944  0.35296810  0.37597931  1
  O  O48  1  0.55457515  0.54746732  0.68258052  1
  O  O49  1  0.65829089  0.37564447  0.89869171  1
  O  O50  1  0.00207434  0.76456632  0.86449773  1
  O  O51  1  0.37355274  0.13387869  0.45627430  1
  O  O52  1  0.31993961  0.82984582  0.55385480  1
  O  O53  1  0.43851880  0.91593624  0.99543542  1
  O  O54  1  0.26591186  0.75963901  0.93924291  1
  O  O55  1  0.58271349  0.78846607  0.43908960  1
  O  O56  1  0.82739404  0.14424973  0.97246087  1
  O  O57  1  0.81957017  0.08100657  0.71372682  1
  O  O58  1  0.30385723  0.38831162  0.21839425  1
  O  O59  1  0.12129735  0.50457897  0.94911995  1
  O  O60  1  0.68955225  0.91003936  0.89716243  1
  O  O61  1  0.69116355  0.21187737  0.31833781  1
  O  O62  1  0.79151691  0.62135261  0.35004177  1
  O  O63  1  0.29813729  0.36465554  0.83776494  1
  O  O64  1  0.92323374  0.50953831  0.77642082  1
  O  O65  1  0.19025372  0.45944880  0.55305177  1
  O  O66  1  0.31166504  0.17099633  0.01949527  1
  O  O67  1  0.07911930  0.25146221  0.01223442  1
  O  O68  1  0.82979210  0.49702558  0.11945646  1
  O  O69  1  0.43901548  0.32286861  0.58735223  1
  O  O70  1  0.71241631  0.64255835  0.86851079  1
  O  O71  1  0.95175910  0.09372562  0.23220223  1
  O  O72  1  0.03127368  0.85776540  0.09715323  1
  O  O73  1  0.55576226  0.13993132  0.11182506  1
  O  O74  1  0.08307741  0.03453750  0.86886898  1
  O  O75  1  0.60198063  0.71248698  0.12253103  1
  O  O76  1  0.81197972  0.98585224  0.47454565  1
  O  O77  1  0.17487758  0.97774496  0.31465113  1
  O  O78  1  0.42225568  0.59441740  0.46448871  1
  O  O79  1  0.59815153  0.43759482  0.32160931  1
