# generated using pymatgen
data_Mn3Re
_symmetry_space_group_name_H-M   'P 1'
_cell_length_a   5.34687061
_cell_length_b   5.45652883
_cell_length_c   7.86214660
_cell_angle_alpha   89.99832713
_cell_angle_beta   90.00894289
_cell_angle_gamma   89.93670853
_symmetry_Int_Tables_number   1
_chemical_formula_structural   Mn3Re
_chemical_formula_sum   'Mn6 Re2'
_cell_volume   229.38076453
_cell_formula_units_Z   2
loop_
 _symmetry_equiv_pos_site_id
 _symmetry_equiv_pos_as_xyz
  1  'x, y, z'
loop_
 _atom_site_type_symbol
 _atom_site_label
 _atom_site_symmetry_multiplicity
 _atom_site_fract_x
 _atom_site_fract_y
 _atom_site_fract_z
 _atom_site_occupancy
  Mn  Mn0  1  0.49855700  0.00147000  0.49658800  1.0
  Mn  Mn1  1  0.00159100  0.50148900  0.00341700  1.0
  Mn  Mn2  1  0.99799200  0.95635900  0.24314000  1.0
  Mn  Mn3  1  0.50196700  0.45633900  0.25681700  1.0
  Mn  Mn4  1  0.50573600  0.54895600  0.74186200  1.0
  Mn  Mn5  1  0.99426100  0.04924800  0.75828300  1.0
  Re  Re6  1  0.00263600  0.50075700  0.50142400  1.0
  Re  Re7  1  0.49732400  0.00091300  0.99846700  1.0
