# generated using pymatgen
data_Fe
_symmetry_space_group_name_H-M   'P 1'
_cell_length_a   4.21831300
_cell_length_b   5.14719600
_cell_length_c   5.14719557
_cell_angle_alpha   120.00000275
_cell_angle_beta   90.00000000
_cell_angle_gamma   90.00000000
_symmetry_Int_Tables_number   1
_chemical_formula_structural   Fe
_chemical_formula_sum   Fe6
_cell_volume   96.78561114
_cell_formula_units_Z   6
loop_
 _symmetry_equiv_pos_site_id
 _symmetry_equiv_pos_as_xyz
  1  'x, y, z'
loop_
 _atom_site_type_symbol
 _atom_site_label
 _atom_site_symmetry_multiplicity
 _atom_site_fract_x
 _atom_site_fract_y
 _atom_site_fract_z
 _atom_site_occupancy
  Fe  Fe0  1  0.75000000  0.16251800  0.32503600  1.0
  Fe  Fe1  1  0.75000000  0.16251800  0.83748200  1.0
  Fe  Fe2  1  0.75000000  0.67496400  0.83748200  1.0
  Fe  Fe3  1  0.25000000  0.83748200  0.67496400  1.0
  Fe  Fe4  1  0.25000000  0.83748200  0.16251800  1.0
  Fe  Fe5  1  0.25000000  0.32503600  0.16251800  1.0
