# generated using pymatgen
data_Mn
_symmetry_space_group_name_H-M   'P 1'
_cell_length_a   4.94286777
_cell_length_b   4.94286777
_cell_length_c   5.62169204
_cell_angle_alpha   72.80355151
_cell_angle_beta   72.80355151
_cell_angle_gamma   60.26117942
_symmetry_Int_Tables_number   1
_chemical_formula_structural   Mn
_chemical_formula_sum   Mn2
_cell_volume   112.07515007
_cell_formula_units_Z   2
loop_
 _symmetry_equiv_pos_site_id
 _symmetry_equiv_pos_as_xyz
  1  'x, y, z'
loop_
 _atom_site_type_symbol
 _atom_site_label
 _atom_site_symmetry_multiplicity
 _atom_site_fract_x
 _atom_site_fract_y
 _atom_site_fract_z
 _atom_site_occupancy
  Mn  Mn0  1  0.51045300  0.92260900  0.00606400  1.0
  Mn  Mn1  1  0.92260900  0.51045300  0.50606400  1.0
