# generated using pymatgen
data_Mn
_symmetry_space_group_name_H-M   'P 1'
_cell_length_a   5.33517700
_cell_length_b   5.97078200
_cell_length_c   6.93944847
_cell_angle_alpha   94.90742224
_cell_angle_beta   90.00000000
_cell_angle_gamma   90.00000000
_symmetry_Int_Tables_number   1
_chemical_formula_structural   Mn
_chemical_formula_sum   Mn4
_cell_volume   220.24702468
_cell_formula_units_Z   4
loop_
 _symmetry_equiv_pos_site_id
 _symmetry_equiv_pos_as_xyz
  1  'x, y, z'
loop_
 _atom_site_type_symbol
 _atom_site_label
 _atom_site_symmetry_multiplicity
 _atom_site_fract_x
 _atom_site_fract_y
 _atom_site_fract_z
 _atom_site_occupancy
  Mn  Mn0  1  0.77298700  0.58912300  0.90524900  1.0
  Mn  Mn1  1  0.27298700  0.41087700  0.59475100  1.0
  Mn  Mn2  1  0.22701300  0.41087700  0.09475100  1.0
  Mn  Mn3  1  0.72701300  0.58912300  0.40524900  1.0
