# generated using pymatgen
data_Eu
_symmetry_space_group_name_H-M   'P 1'
_cell_length_a   9.50388056
_cell_length_b   9.50388056
_cell_length_c   9.50388056
_cell_angle_alpha   109.47122063
_cell_angle_beta   109.47122064
_cell_angle_gamma   109.47122064
_symmetry_Int_Tables_number   1
_chemical_formula_structural   Eu
_chemical_formula_sum   Eu16
_cell_volume   660.81671295
_cell_formula_units_Z   16
loop_
 _symmetry_equiv_pos_site_id
 _symmetry_equiv_pos_as_xyz
  1  'x, y, z'
loop_
 _atom_site_type_symbol
 _atom_site_label
 _atom_site_symmetry_multiplicity
 _atom_site_fract_x
 _atom_site_fract_y
 _atom_site_fract_z
 _atom_site_occupancy
  Eu  Eu0  1  0.50000000  0.50000000  1.00000000  1.0
  Eu  Eu1  1  0.00000000  0.50000000  0.50000000  1.0
  Eu  Eu2  1  0.50000000  0.00000000  0.50000000  1.0
  Eu  Eu3  1  0.00000000  0.00000000  0.00000000  1.0
  Eu  Eu4  1  0.96879500  0.21879500  0.75000000  1.0
  Eu  Eu5  1  0.53120500  0.28120500  0.25000000  1.0
  Eu  Eu6  1  0.21879500  0.25000000  0.46879500  1.0
  Eu  Eu7  1  0.28120500  0.75000000  0.03120500  1.0
  Eu  Eu8  1  0.75000000  0.53120500  0.78120500  1.0
  Eu  Eu9  1  0.25000000  0.96879500  0.71879500  1.0
  Eu  Eu10  1  0.03120500  0.78120500  0.25000000  1.0
  Eu  Eu11  1  0.46879500  0.71879500  0.75000000  1.0
  Eu  Eu12  1  0.78120500  0.75000000  0.53120500  1.0
  Eu  Eu13  1  0.71879500  0.25000000  0.96879500  1.0
  Eu  Eu14  1  0.25000000  0.46879500  0.21879500  1.0
  Eu  Eu15  1  0.75000000  0.03120500  0.28120500  1.0
