# generated using pymatgen
data_Eu
_symmetry_space_group_name_H-M   'P 1'
_cell_length_a   3.65052600
_cell_length_b   7.44270596
_cell_length_c   8.94834393
_cell_angle_alpha   99.95181377
_cell_angle_beta   90.00000000
_cell_angle_gamma   104.19612693
_symmetry_Int_Tables_number   1
_chemical_formula_structural   Eu
_chemical_formula_sum   Eu6
_cell_volume   231.92481495
_cell_formula_units_Z   6
loop_
 _symmetry_equiv_pos_site_id
 _symmetry_equiv_pos_as_xyz
  1  'x, y, z'
loop_
 _atom_site_type_symbol
 _atom_site_label
 _atom_site_symmetry_multiplicity
 _atom_site_fract_x
 _atom_site_fract_y
 _atom_site_fract_z
 _atom_site_occupancy
  Eu  Eu0  1  0.31063100  0.62126200  0.86634800  1.0
  Eu  Eu1  1  0.36286500  0.72573000  0.50975700  1.0
  Eu  Eu2  1  0.02972500  0.05944900  0.81286900  1.0
  Eu  Eu3  1  0.68936900  0.37873800  0.13365200  1.0
  Eu  Eu4  1  0.97027500  0.94055100  0.18713100  1.0
  Eu  Eu5  1  0.63713500  0.27427000  0.49024300  1.0
