# generated using pymatgen
data_MnNi2
_symmetry_space_group_name_H-M   'P 1'
_cell_length_a   4.15039812
_cell_length_b   5.52558400
_cell_length_c   10.87743780
_cell_angle_alpha   104.71391811
_cell_angle_beta   100.93596229
_cell_angle_gamma   90.00000000
_symmetry_Int_Tables_number   1
_chemical_formula_structural   MnNi2
_chemical_formula_sum   'Mn5 Ni10'
_cell_volume   236.58893313
_cell_formula_units_Z   5
loop_
 _symmetry_equiv_pos_site_id
 _symmetry_equiv_pos_as_xyz
  1  'x, y, z'
loop_
 _atom_site_type_symbol
 _atom_site_label
 _atom_site_symmetry_multiplicity
 _atom_site_fract_x
 _atom_site_fract_y
 _atom_site_fract_z
 _atom_site_occupancy
  Mn  Mn0  1  0.75889800  0.80002300  0.60004600  1.0
  Mn  Mn1  1  0.34974800  0.39998500  0.79997000  1.0
  Mn  Mn2  1  0.24110200  0.19997700  0.39995400  1.0
  Mn  Mn3  1  0.65025200  0.60001500  0.20003000  1.0
  Mn  Mn4  1  0.00000000  0.00000000  0.00000000  1.0
  Ni  Ni5  1  0.25482800  0.04985400  0.60010500  1.0
  Ni  Ni6  1  0.15441300  0.84985600  0.19999600  1.0
  Ni  Ni7  1  0.50000000  0.75014500  1.00000000  1.0
  Ni  Ni8  1  0.25482800  0.55025100  0.60010500  1.0
  Ni  Ni9  1  0.15441300  0.35014000  0.19999600  1.0
  Ni  Ni10  1  0.74517200  0.95014600  0.39989500  1.0
  Ni  Ni11  1  0.84558700  0.15014400  0.80000400  1.0
  Ni  Ni12  1  0.74517200  0.44974900  0.39989500  1.0
  Ni  Ni13  1  0.84558700  0.64986000  0.80000400  1.0
  Ni  Ni14  1  0.50000000  0.24985500  1.00000000  1.0
