# generated using pymatgen
data_MnNi
_symmetry_space_group_name_H-M   'P 1'
_cell_length_a   5.44189000
_cell_length_b   5.66115800
_cell_length_c   7.76464566
_cell_angle_alpha   90.00001753
_cell_angle_beta   89.73725669
_cell_angle_gamma   89.99985550
_symmetry_Int_Tables_number   1
_chemical_formula_structural   MnNi
_chemical_formula_sum   'Mn2 Ni2'
_cell_volume   239.20602263
_cell_formula_units_Z   2
loop_
 _symmetry_equiv_pos_site_id
 _symmetry_equiv_pos_as_xyz
  1  'x, y, z'
loop_
 _atom_site_type_symbol
 _atom_site_label
 _atom_site_symmetry_multiplicity
 _atom_site_fract_x
 _atom_site_fract_y
 _atom_site_fract_z
 _atom_site_occupancy
  Mn  Mn0  1  0.50001300  0.00000000  0.50000300  1.0
  Mn  Mn1  1  0.99998400  0.50001600  0.99999100  1.0
  Ni  Ni2  1  0.99999500  0.50000100  0.50000100  1.0
  Ni  Ni3  1  0.49999200  0.00000100  0.00000200  1.0
