# generated using pymatgen
data_VCu
_symmetry_space_group_name_H-M   'P 1'
_cell_length_a   6.09524400
_cell_length_b   6.09524400
_cell_length_c   7.79678400
_cell_angle_alpha   90.00000000
_cell_angle_beta   90.00000000
_cell_angle_gamma   90.00000000
_symmetry_Int_Tables_number   1
_chemical_formula_structural   VCu
_chemical_formula_sum   'V4 Cu4'
_cell_volume   289.66611464
_cell_formula_units_Z   4
loop_
 _symmetry_equiv_pos_site_id
 _symmetry_equiv_pos_as_xyz
  1  'x, y, z'
loop_
 _atom_site_type_symbol
 _atom_site_label
 _atom_site_symmetry_multiplicity
 _atom_site_fract_x
 _atom_site_fract_y
 _atom_site_fract_z
 _atom_site_occupancy
  V  V0  1  0.71650900  0.00000000  0.25000000  1.0
  V  V1  1  0.00000000  0.71650900  0.00000000  1.0
  V  V2  1  0.00000000  0.28349100  0.50000000  1.0
  V  V3  1  0.28349100  0.00000000  0.75000000  1.0
  Cu  Cu4  1  0.75943900  0.75943900  0.62500000  1.0
  Cu  Cu5  1  0.75943900  0.24056100  0.87500000  1.0
  Cu  Cu6  1  0.24056100  0.75943900  0.37500000  1.0
  Cu  Cu7  1  0.24056100  0.24056100  0.12500000  1.0
