# generated using pymatgen
data_HoMn
_symmetry_space_group_name_H-M   'P 1'
_cell_length_a   4.02042900
_cell_length_b   7.09235800
_cell_length_c   7.09235869
_cell_angle_alpha   119.99999677
_cell_angle_beta   90.00000000
_cell_angle_gamma   90.00000000
_symmetry_Int_Tables_number   1
_chemical_formula_structural   HoMn
_chemical_formula_sum   'Ho3 Mn3'
_cell_volume   175.13961210
_cell_formula_units_Z   3
loop_
 _symmetry_equiv_pos_site_id
 _symmetry_equiv_pos_as_xyz
  1  'x, y, z'
loop_
 _atom_site_type_symbol
 _atom_site_label
 _atom_site_symmetry_multiplicity
 _atom_site_fract_x
 _atom_site_fract_y
 _atom_site_fract_z
 _atom_site_occupancy
  Ho  Ho0  1  0.50000000  0.58804700  0.58804700  1.0
  Ho  Ho1  1  0.50000000  1.00000000  0.41195300  1.0
  Ho  Ho2  1  0.50000000  0.41195300  0.00000000  1.0
  Mn  Mn3  1  0.00000000  0.23080700  0.23080700  1.0
  Mn  Mn4  1  1.00000000  0.00000000  0.76919300  1.0
  Mn  Mn5  1  0.00000000  0.76919300  0.00000000  1.0
