# generated using pymatgen
data_CrCu
_symmetry_space_group_name_H-M   'P 1'
_cell_length_a   3.63715879
_cell_length_b   3.63715879
_cell_length_c   7.11127328
_cell_angle_alpha   75.18303449
_cell_angle_beta   75.18303449
_cell_angle_gamma   59.99998570
_symmetry_Int_Tables_number   1
_chemical_formula_structural   CrCu
_chemical_formula_sum   'Cr1 Cu1'
_cell_volume   77.83781518
_cell_formula_units_Z   1
loop_
 _symmetry_equiv_pos_site_id
 _symmetry_equiv_pos_as_xyz
  1  'x, y, z'
loop_
 _atom_site_type_symbol
 _atom_site_label
 _atom_site_symmetry_multiplicity
 _atom_site_fract_x
 _atom_site_fract_y
 _atom_site_fract_z
 _atom_site_occupancy
  Cr  Cr0  1  0.73982400  0.73982400  0.78052800  1.0
  Cu  Cu1  1  0.25800100  0.25800100  0.22599700  1.0
